@<TRIPOS>MOLECULE
 ZINC000020152257      none
   39    41    -1     0     0



@<TRIPOS>ATOM
      1 O1        -44.0749   -46.0219    -0.7702 O.co2      1  LIG1  -0.6900
      2 C1        -43.4211   -45.4661     0.1018 C.2        1  LIG1   0.5200
      3 O2        -42.2188   -45.2974    -0.0489 O.co2      1  LIG1  -0.6700
      4 C2        -44.0821   -44.9951     1.3296 C.ar       1  LIG1  -0.1600
      5 C3        -44.6134   -43.7032     1.3904 C.ar       1  LIG1  -0.0600
      6 C4        -45.2337   -43.2682     2.5482 C.ar       1  LIG1   0.0800
      7 N1        -45.7673   -41.9742     2.6112 N.pl3      1  LIG1  -0.6100
      8 C5        -44.9652   -40.9053     2.4365 C.2        1  LIG1   0.5100
      9 S1        -43.2943   -41.1288     2.1375 S.2        1  LIG1  -0.5000
     10 N2        -45.4783   -39.6605     2.4971 N.am       1  LIG1  -0.6400
     11 C6        -46.7937   -39.4846     2.7325 C.2        1  LIG1   0.5300
     12 O3        -47.5171   -40.4484     2.8900 O.2        1  LIG1  -0.4000
     13 C7        -47.3559   -38.1205     2.7988 C.ar       1  LIG1  -0.1400
     14 C8        -46.5358   -37.0453     3.1845 C.ar       1  LIG1  -0.1000
     15 C9        -47.0291   -35.7827     3.2528 C.ar       1  LIG1  -0.1100
     16 C10       -48.3773   -35.5358     2.9364 C.ar       1  LIG1  -0.0300
     17 C11       -48.9107   -34.2377     2.9998 C.ar       1  LIG1  -0.1100
     18 C12       -50.2193   -34.0296     2.6874 C.ar       1  LIG1  -0.1000
     19 C13       -51.0430   -35.0865     2.3040 C.ar       1  LIG1  -0.1200
     20 C14       -50.5625   -36.3576     2.2307 C.ar       1  LIG1  -0.0900
     21 C15       -49.2153   -36.6117     2.5461 C.ar       1  LIG1  -0.0600
     22 C16       -48.6871   -37.9091     2.4760 C.ar       1  LIG1  -0.0200
     23 C17       -45.3295   -44.1125     3.6498 C.ar       1  LIG1  -0.0600
     24 C18       -44.8073   -45.3890     3.5979 C.ar       1  LIG1  -0.1600
     25 C19       -44.1876   -45.8421     2.4431 C.ar       1  LIG1   0.1500
     26 O4        -43.6752   -47.0974     2.3938 O.3        1  LIG1  -0.4700
     27 H1        -44.5396   -43.0465     0.5362 H          1  LIG1   0.1300
     28 H2        -46.7139   -41.8477     2.7806 H          1  LIG1   0.4000
     29 H3        -44.9009   -38.8913     2.3713 H          1  LIG1   0.4100
     30 H4        -45.4996   -37.2264     3.4288 H          1  LIG1   0.1200
     31 H5        -46.3867   -34.9673     3.5510 H          1  LIG1   0.1300
     32 H6        -48.2852   -33.4085     3.2956 H          1  LIG1   0.1300
     33 H7        -50.6255   -33.0302     2.7378 H          1  LIG1   0.1300
     34 H8        -52.0777   -34.8940     2.0616 H          1  LIG1   0.1300
     35 H9        -51.2119   -37.1670     1.9317 H          1  LIG1   0.1300
     36 H10       -49.3130   -38.7367     2.1761 H          1  LIG1   0.1500
     37 H11       -45.8149   -43.7671     4.5506 H          1  LIG1   0.1400
     38 H12       -44.8850   -46.0380     4.4575 H          1  LIG1   0.1300
     39 H13       -43.7967   -47.6042     3.2085 H          1  LIG1   0.3900
@<TRIPOS>BOND
     1    1    2 2
     2    2    3 1
     3    2    4 1
     4    4   25 ar
     5    4    5 ar
     6    5    6 ar
     7    5   27 1
     8    6    7 1
     9    6   23 ar
    10    7    8 1
    11    7   28 1
    12    8    9 2
    13    8   10 1
    14   10   11 am
    15   10   29 1
    16   11   12 2
    17   11   13 1
    18   13   22 ar
    19   13   14 ar
    20   14   15 ar
    21   14   30 1
    22   15   16 ar
    23   15   31 1
    24   16   21 ar
    25   16   17 ar
    26   17   18 ar
    27   17   32 1
    28   18   19 ar
    29   18   33 1
    30   19   20 ar
    31   19   34 1
    32   20   21 ar
    33   20   35 1
    34   21   22 ar
    35   22   36 1
    36   23   24 ar
    37   23   37 1
    38   24   25 ar
    39   24   38 1
    40   25   26 1
    41   26   39 1
##########                 Name:     ZINC000263294111
##########          Protonation:                 none
##########               SMILES:   CC1=NN(CC(F)(F)F)C(C)=C1CC(=O)N([C@H](C)C(=O)[O-])C1CC1
##########            Long Name:   NO_LONG_NAME
##########          FlexRecCode: 1
##########               Number:                 9279
##########   Ligand Source File: /bks/ex5/3D/EE/ADRM/EEADRM.xbo.db2.gz
##########                 Rank:                    1
##########               Setnum:                  138
##########             Matchnum:                    1
##########                Cloud:                    1
##########        Electrostatic:           -73.950035
##########                 Gist:             0.000000
##########        Van der Waals:           -23.610226
##########  Ligand Polar Desolv:            33.791183
########## Ligand Apolar Desolv:            -6.130889
##########      Internal Energy:             0.000000
##########      Receptor Energy:             0.000000
########## Receptor Desolvation:             0.000000
########## Receptor Hydrophobic:             0.000000
##########         Total Energy:           -69.899963
##########        Ligand Charge:            -1.000000
##########            Arbitrary:    +999.9990
##########        Ligand Energy:             0.000000

@<TRIPOS>MOLECULE
 ZINC000263294111      none
   43    44    -1     0     0



@<TRIPOS>ATOM
      1 C1        -40.7573   -40.1211    -0.2774 C.3        1  LIG1  -0.0700
      2 C2        -41.6827   -39.6756     0.8253 C.2        1  LIG1   0.1000
      3 N1        -41.4068   -38.7889     1.7471 N.2        1  LIG1  -0.2900
      4 N2        -42.5266   -38.6591     2.5787 N.pl3      1  LIG1  -0.3900
      5 C3        -42.6411   -37.7703     3.7376 C.3        1  LIG1   0.1000
      6 C4        -43.1927   -36.4156     3.2888 C.3        1  LIG1   0.4400
      7 F1        -44.4545   -36.5941     2.7113 F          1  LIG1  -0.1700
      8 F2        -43.3022   -35.5668     4.3954 F          1  LIG1  -0.1800
      9 F3        -42.3261   -35.8474     2.3491 F          1  LIG1  -0.1700
     10 C5        -43.4813   -39.4975     2.1237 C.2        1  LIG1   0.1100
     11 C6        -44.8539   -39.6863     2.7164 C.3        1  LIG1  -0.1000
     12 C7        -42.9871   -40.1341     1.0367 C.2        1  LIG1  -0.2000
     13 C8        -43.7111   -41.1620     0.2058 C.3        1  LIG1  -0.0700
     14 C9        -43.4538   -42.5356     0.7699 C.2        1  LIG1   0.5100
     15 O1        -42.4097   -42.7712     1.3402 O.2        1  LIG1  -0.5400
     16 N3        -44.3839   -43.5024     0.6403 N.am       1  LIG1  -0.5500
     17 C10       -43.9742   -44.9064     0.5552 C.3        1  LIG1   0.0600
     18 H1        -44.8574   -45.5372     0.4546 H          1  LIG1   0.0900
     19 C11       -43.2131   -45.2933     1.8248 C.3        1  LIG1  -0.1400
     20 C12       -43.0812   -45.0972    -0.6436 C.2        1  LIG1   0.4900
     21 O2        -43.2225   -44.3913    -1.6276 O.co2      1  LIG1  -0.6800
     22 O3        -42.2174   -45.9576    -0.6295 O.co2      1  LIG1  -0.6900
     23 C13       -45.8045   -43.1493     0.5847 C.3        1  LIG1   0.0900
     24 C14       -46.7520   -43.8804     1.5378 C.3        1  LIG1  -0.2100
     25 C15       -46.3972   -42.4134     1.7881 C.3        1  LIG1  -0.2100
     26 H2        -39.8078   -39.5927    -0.1906 H          1  LIG1   0.0800
     27 H3        -40.5846   -41.1942    -0.1953 H          1  LIG1   0.0700
     28 H4        -41.2099   -39.8988    -1.2437 H          1  LIG1   0.0800
     29 H5        -43.3165   -38.2131     4.4698 H          1  LIG1   0.1300
     30 H6        -41.6581   -37.6313     4.1875 H          1  LIG1   0.1400
     31 H7        -45.4017   -40.4281     2.1354 H          1  LIG1   0.0900
     32 H8        -44.7606   -40.0285     3.7470 H          1  LIG1   0.0900
     33 H9        -45.3922   -38.7386     2.6955 H          1  LIG1   0.0700
     34 H10       -44.7813   -40.9562     0.2247 H          1  LIG1   0.1000
     35 H11       -43.3507   -41.1179    -0.8219 H          1  LIG1   0.1000
     36 H12       -42.9082   -46.3380     1.7616 H          1  LIG1   0.0600
     37 H13       -42.3299   -44.6626     1.9256 H          1  LIG1   0.0500
     38 H14       -43.8591   -45.1553     2.6919 H          1  LIG1   0.0600
     39 H15       -46.1858   -42.8883    -0.4026 H          1  LIG1   0.1500
     40 H16       -47.7570   -44.1008     1.1777 H          1  LIG1   0.0800
     41 H17       -46.3184   -44.6243     2.2063 H          1  LIG1   0.1600
     42 H18       -45.7301   -42.1921     2.6212 H          1  LIG1   0.0800
     43 H19       -47.1686   -41.6686     1.5926 H          1  LIG1   0.0900
@<TRIPOS>BOND
     1    1    2 1
     2    1   26 1
     3    1   27 1
     4    1   28 1
     5    2   12 1
     6    2    3 2
     7    3    4 1
     8    4    5 1
     9    4   10 1
    10    5    6 1
    11    5   29 1
    12    5   30 1
    13    6    7 1
    14    6    8 1
    15    6    9 1
    16   10   11 1
    17   10   12 2
    18   11   31 1
    19   11   32 1
    20   11   33 1
    21   12   13 1
    22   13   14 1
    23   13   34 1
    24   13   35 1
    25   14   15 2
    26   14   16 am
    27   16   17 1
    28   16   23 1
    29   17   18 1
    30   17   19 1
    31   17   20 1
    32   19   36 1
    33   19   37 1
    34   19   38 1
    35   20   21 2
    36   20   22 1
    37   23   25 1
    38   23   24 1
    39   23   39 1
    40   24   25 1
    41   24   40 1
    42   24   41 1
    43   25   42 1
    44   25   43 1
##########                 Name:     ZINC000608955982
##########          Protonation:                 none
##########               SMILES:   CC1=CC([N+](=O)[O-])=CC=C1S(=O)(=O)[N-]C1=CC=C(N2C=CC=N2)C(Cl)=C1
##########            Long Name:   NO_LONG_NAME
##########          FlexRecCode: 1
##########               Number:                12655
##########   Ligand Source File: /bks/ex7/3D/GH/BDMM/GHBDMM.xaa.db2.gz
##########                 Rank:                    1
##########               Setnum:                   44
##########             Matchnum:                    1
##########                Cloud:                    1
##########        Electrostatic:           -51.745602
##########                 Gist:             0.000000
##########        Van der Waals:           -32.627861
##########  Ligand Polar Desolv:            22.131191
########## Ligand Apolar Desolv:            -4.862935
##########      Internal Energy:             0.000000
##########      Receptor Energy:             0.000000
########## Receptor Desolvation:             0.000000
########## Receptor Hydrophobic:             0.000000
##########         Total Energy:           -67.105202
##########        Ligand Charge:            -1.000000
##########            Arbitrary:    +999.9990
##########        Ligand Energy:             0.000000

@<TRIPOS>MOLECULE
 ZINC000914251353      none
   50    51     0     0     0



@<TRIPOS>ATOM
      1 C1        -38.5789   -50.1970    -2.4848 C.3        1  LIG1  -0.5300
      2 S1        -39.7837   -50.3152    -1.1341 S.o        1  LIG1   2.3000
      3 C2        -40.9070   -51.6815    -1.5367 C.3        1  LIG1  -0.6200
      4 O1        -39.1869   -50.4307     0.1504 O.2        1  LIG1  -0.9200
      5 N1        -40.5877   -49.0564    -1.1370 N.2        1  LIG1  -1.1200
      6 C3        -41.5478   -48.8820    -0.2422 C.2        1  LIG1   0.5500
      7 O2        -42.6812   -49.2458    -0.4881 O.2        1  LIG1  -0.5700
      8 C4        -41.2355   -48.2324     1.0813 C.3        1  LIG1   0.1500
      9 N2        -42.4191   -47.5180     1.5661 N.am       1  LIG1  -0.7400
     10 C5        -42.9523   -46.5213     0.8321 C.2        1  LIG1   0.7100
     11 O3        -42.4510   -46.2153    -0.2325 O.2        1  LIG1  -0.5900
     12 N3        -44.0411   -45.8642     1.2780 N.am       1  LIG1  -0.7400
     13 C6        -44.6207   -44.7809     0.4802 C.3        1  LIG1   0.1900
     14 C7        -45.2677   -43.7735     1.3955 C.ar       1  LIG1  -0.1500
     15 C8        -46.5943   -43.9160     1.7526 C.ar       1  LIG1  -0.0600
     16 C9        -47.1887   -42.9917     2.5921 C.ar       1  LIG1  -0.1600
     17 C10       -46.4571   -41.9233     3.0764 C.ar       1  LIG1  -0.0700
     18 C11       -45.1297   -41.7766     2.7225 C.ar       1  LIG1  -0.2100
     19 C12       -44.5296   -42.7052     1.8847 C.ar       1  LIG1   0.1500
     20 O4        -43.2241   -42.5631     1.5352 O.3        1  LIG1  -0.3000
     21 C13       -42.8628   -41.3618     0.8511 C.3        1  LIG1   0.0800
     22 C14       -41.7101   -40.6409     1.5934 C.3        1  LIG1  -0.1500
     23 C15       -41.0665   -39.7840     0.4751 C.3        1  LIG1  -0.1200
     24 C16       -41.1316   -40.6841    -0.7760 C.3        1  LIG1  -0.1200
     25 C17       -42.2736   -41.6872    -0.5369 C.3        1  LIG1  -0.1200
     26 H1        -37.8825   -49.3839    -2.2804 H          1  LIG1   0.1500
     27 H2        -38.0291   -51.1349    -2.5645 H          1  LIG1   0.1500
     28 H3        -39.1010   -50.0014    -3.4216 H          1  LIG1   0.1400
     29 H4        -41.6498   -51.7862    -0.7460 H          1  LIG1   0.1300
     30 H5        -41.4091   -51.4729    -2.4815 H          1  LIG1   0.1400
     31 H6        -40.3372   -52.6065    -1.6246 H          1  LIG1   0.1300
     32 H7        -40.9518   -48.9978     1.8037 H          1  LIG1   0.1000
     33 H8        -40.4126   -47.5287     0.9555 H          1  LIG1   0.1000
     34 H9        -42.8190   -47.7623     2.4155 H          1  LIG1   0.4100
     35 H10       -44.4410   -46.1084     2.1274 H          1  LIG1   0.4000
     36 H11       -43.8348   -44.2946    -0.0976 H          1  LIG1   0.0800
     37 H12       -45.3699   -45.1897    -0.1977 H          1  LIG1   0.0700
     38 H13       -47.1681   -44.7498     1.3756 H          1  LIG1   0.1300
     39 H14       -48.2264   -43.1045     2.8696 H          1  LIG1   0.1300
     40 H15       -46.9237   -41.2027     3.7315 H          1  LIG1   0.1300
     41 H16       -44.5586   -40.9416     3.1007 H          1  LIG1   0.1300
     42 H17       -43.7267   -40.7043     0.7543 H          1  LIG1   0.0800
     43 H18       -42.1001   -40.0071     2.3897 H          1  LIG1   0.0700
     44 H19       -40.9941   -41.3620     1.9880 H          1  LIG1   0.0800
     45 H20       -41.6391   -38.8699     0.3177 H          1  LIG1   0.0700
     46 H21       -40.0313   -39.5491     0.7226 H          1  LIG1   0.0700
     47 H22       -41.3429   -40.0811    -1.6591 H          1  LIG1   0.0700
     48 H23       -40.1884   -41.2154    -0.9033 H          1  LIG1   0.0700
     49 H24       -41.8847   -42.7054    -0.5482 H          1  LIG1   0.0800
     50 H25       -43.0392   -41.5710    -1.3040 H          1  LIG1   0.0700
@<TRIPOS>BOND
     1    1    2 1
     2    1   26 1
     3    1   27 1
     4    1   28 1
     5    2    3 1
     6    2    4 2
     7    2    5 2
     8    3   29 1
     9    3   30 1
    10    3   31 1
    11    5    6 1
    12    6    7 2
    13    6    8 1
    14    8    9 1
    15    8   32 1
    16    8   33 1
    17    9   10 am
    18    9   34 1
    19   10   11 2
    20   10   12 am
    21   12   13 1
    22   12   35 1
    23   13   14 1
    24   13   36 1
    25   13   37 1
    26   14   19 ar
    27   14   15 ar
    28   15   16 ar
    29   15   38 1
    30   16   17 ar
    31   16   39 1
    32   17   18 ar
    33   17   40 1
    34   18   19 ar
    35   18   41 1
    36   19   20 1
    37   20   21 1
    38   21   25 1
    39   21   22 1
    40   21   42 1
    41   22   23 1
    42   22   43 1
    43   22   44 1
    44   23   24 1
    45   23   45 1
    46   23   46 1
    47   24   25 1
    48   24   47 1
    49   24   48 1
    50   25   49 1
    51   25   50 1
##########                 Name:     ZINC000497198662
##########          Protonation:                 none
##########               SMILES:   C1=CC=C(C2=C(C3=CC=CC=C3)OC(SCC3=N[N-]N=N3)=N2)C=C1
##########            Long Name:   NO_LONG_NAME
##########          FlexRecCode: 1
##########               Number:                35465
##########   Ligand Source File: /bks/ex5/3D/EH/ADMM/EHADMM.xab.db2.gz
##########                 Rank:                    1
##########               Setnum:                   36
##########             Matchnum:                    1
##########                Cloud:                    1
##########        Electrostatic:           -65.866547
##########                 Gist:             0.000000
##########        Van der Waals:           -28.863173
##########  Ligand Polar Desolv:            28.702551
########## Ligand Apolar Desolv:            -4.724698
##########      Internal Energy:             0.000000
##########      Receptor Energy:             0.000000
########## Receptor Desolvation:             0.000000
########## Receptor Hydrophobic:             0.000000
##########         Total Energy:           -70.751869
##########        Ligand Charge:            -1.000000
##########            Arbitrary:    +999.9990
##########        Ligand Energy:             0.000000

@<TRIPOS>MOLECULE
 ZINC000497198662      none
   36    39    -1     0     0



@<TRIPOS>ATOM
      1 C1        -42.5565   -37.6982     3.1653 C.ar       1  LIG1  -0.1200
      2 C2        -43.8673   -38.1155     3.0137 C.ar       1  LIG1  -0.1200
      3 C3        -44.1407   -39.3658     2.4980 C.ar       1  LIG1  -0.0900
      4 C4        -43.0929   -40.2091     2.1285 C.ar       1  LIG1  -0.0100
      5 C5        -43.3797   -41.5523     1.5739 C.2        1  LIG1   0.0600
      6 C6        -43.0042   -42.0230     0.3337 C.2        1  LIG1  -0.0100
      7 C7        -42.2423   -41.2886    -0.6930 C.ar       1  LIG1  -0.0100
      8 C8        -41.0146   -41.7820    -1.1433 C.ar       1  LIG1  -0.1000
      9 C9        -40.3076   -41.0895    -2.1038 C.ar       1  LIG1  -0.1200
     10 C10       -40.8106   -39.9097    -2.6219 C.ar       1  LIG1  -0.1100
     11 C11       -42.0254   -39.4138    -2.1799 C.ar       1  LIG1  -0.1200
     12 C12       -42.7468   -40.0987    -1.2247 C.ar       1  LIG1  -0.0800
     13 O1        -43.4707   -43.2909     0.2418 O.3        1  LIG1  -0.1700
     14 C13       -44.1084   -43.5817     1.3871 C.2        1  LIG1   0.1900
     15 S1        -44.8907   -45.1169     1.7554 S.3        1  LIG1   0.0600
     16 C14       -43.4717   -46.2327     1.6223 C.3        1  LIG1   0.0200
     17 C15       -43.2067   -46.5373     0.1703 C.2        1  LIG1   0.0500
     18 N1        -43.7246   -47.5287    -0.5325 N.2        1  LIG1  -0.3700
     19 N2        -43.2523   -47.4475    -1.7296 N.2        1  LIG1  -0.1900
     20 N3        -42.4562   -46.4374    -1.7961 N.2        1  LIG1  -0.1900
     21 N4        -42.4165   -45.8604    -0.6437 N.2        1  LIG1  -0.3700
     22 N5        -44.0530   -42.5477     2.1907 N.2        1  LIG1  -0.4800
     23 C16       -41.7741   -39.7822     2.2830 C.ar       1  LIG1  -0.0900
     24 C17       -41.5134   -38.5299     2.8003 C.ar       1  LIG1  -0.1200
     25 H1        -42.3479   -36.7169     3.5652 H          1  LIG1   0.1200
     26 H2        -44.6777   -37.4617     3.3000 H          1  LIG1   0.1200
     27 H3        -45.1639   -39.6909     2.3810 H          1  LIG1   0.1200
     28 H4        -40.6205   -42.7030    -0.7398 H          1  LIG1   0.1300
     29 H5        -39.3588   -41.4696    -2.4528 H          1  LIG1   0.1300
     30 H6        -40.2524   -39.3705    -3.3730 H          1  LIG1   0.1200
     31 H7        -42.4114   -38.4913    -2.5878 H          1  LIG1   0.1300
     32 H8        -43.6948   -39.7115    -0.8815 H          1  LIG1   0.1300
     33 H9        -42.5937   -45.7577     2.0600 H          1  LIG1   0.1000
     34 H10       -43.6868   -47.1592     2.1545 H          1  LIG1   0.1000
     35 H11       -40.9586   -40.4309     1.9990 H          1  LIG1   0.1300
     36 H12       -40.4926   -38.1983     2.9204 H          1  LIG1   0.1300
@<TRIPOS>BOND
     1    1   24 ar
     2    1    2 ar
     3    1   25 1
     4    2    3 ar
     5    2   26 1
     6    3    4 ar
     7    3   27 1
     8    4    5 1
     9    4   23 ar
    10    5   22 1
    11    5    6 2
    12    6    7 1
    13    6   13 1
    14    7   12 ar
    15    7    8 ar
    16    8    9 ar
    17    8   28 1
    18    9   10 ar
    19    9   29 1
    20   10   11 ar
    21   10   30 1
    22   11   12 ar
    23   11   31 1
    24   12   32 1
    25   13   14 1
    26   14   15 1
    27   14   22 2
    28   15   16 1
    29   16   17 1
    30   16   33 1
    31   16   34 1
    32   17   21 1
    33   17   18 2
    34   18   19 1
    35   19   20 1
    36   20   21 2
    37   23   24 ar
    38   23   35 1
    39   24   36 1
##########                 Name:     ZINC000466386235
##########          Protonation:                 none
##########               SMILES:   CNS(=O)(=O)C1=CC=CC(NC(=O)NCC2=C3NC=CC3=CC=C2)=C1
##########            Long Name:   NO_LONG_NAME
##########          FlexRecCode: 1
##########               Number:                16873
##########   Ligand Source File: /bks/ex4/3D/FE/ADRN/FEADRN.xban.db2.gz
##########                 Rank:                    1
##########               Setnum:                  121
##########             Matchnum:                    1
##########                Cloud:                    1
##########        Electrostatic:           -44.273216
##########                 Gist:             0.000000
##########        Van der Waals:           -28.103746
##########  Ligand Polar Desolv:             7.649764
########## Ligand Apolar Desolv:            -1.953982
##########      Internal Energy:             0.000000
##########      Receptor Energy:             0.000000
########## Receptor Desolvation:             0.000000
########## Receptor Hydrophobic:             0.000000
##########         Total Energy:           -66.681175
##########        Ligand Charge:             0.000000
##########            Arbitrary:    +999.9990
##########        Ligand Energy:             0.000000

@<TRIPOS>MOLECULE
 ZINC000488306062      none
   36    37    -1     0     0



@<TRIPOS>ATOM
      1 C1        -45.6277   -45.5848     6.1475 C.3        1  LIG1  -0.1100
      2 C2        -46.2722   -44.3542     5.5635 C.ar       1  LIG1  -0.1400
      3 C3        -45.6404   -43.6572     4.5514 C.ar       1  LIG1   0.0100
      4 C4        -46.2315   -42.5281     4.0154 C.ar       1  LIG1  -0.6900
      5 S1        -45.4248   -41.6404     2.7247 S.o2       1  LIG1   2.7000
      6 O1        -45.9344   -40.3148     2.7700 O.2        1  LIG1  -0.9400
      7 O2        -44.0410   -41.9452     2.8323 O.2        1  LIG1  -0.9500
      8 N1        -45.9363   -42.2893     1.2896 N.pl3      1  LIG1  -1.0400
      9 C5        -45.2383   -43.3479     0.7167 C.ar       1  LIG1   0.1400
     10 C6        -45.5832   -44.6579     1.0315 C.ar       1  LIG1  -0.1600
     11 C7        -44.8960   -45.7085     0.4669 C.ar       1  LIG1  -0.0700
     12 C8        -43.8479   -45.4599    -0.4257 C.ar       1  LIG1  -0.1000
     13 C9        -43.1127   -46.5819    -1.0304 C.2        1  LIG1   0.5200
     14 O3        -43.4177   -47.7337    -0.7526 O.co2      1  LIG1  -0.6800
     15 O4        -42.1963   -46.3630    -1.8110 O.co2      1  LIG1  -0.6800
     16 C10       -43.5003   -44.1410    -0.7431 C.ar       1  LIG1  -0.1300
     17 C11       -44.1961   -43.0928    -0.1782 C.ar       1  LIG1   0.0700
     18 O5        -43.8610   -41.8105    -0.4842 O.3        1  LIG1  -0.3200
     19 C12       -42.5269   -41.3986    -0.1802 C.3        1  LIG1   0.6000
     20 F1        -42.0605   -42.1105     0.9300 F          1  LIG1  -0.1600
     21 F2        -41.6986   -41.6527    -1.2786 F          1  LIG1  -0.1400
     22 F3        -42.5153   -40.0292     0.1056 F          1  LIG1  -0.1600
     23 C13       -47.4550   -42.0952     4.4911 C.ar       1  LIG1   0.0100
     24 C14       -48.0886   -42.7904     5.5038 C.ar       1  LIG1  -0.1700
     25 C15       -47.5004   -43.9244     6.0374 C.ar       1  LIG1   0.1600
     26 F4        -48.1188   -44.6047     7.0273 F          1  LIG1  -0.1300
     27 H1        -44.6736   -45.7651     5.6522 H          1  LIG1   0.0800
     28 H2        -45.4609   -45.4361     7.2144 H          1  LIG1   0.0800
     29 H3        -46.2823   -46.4434     5.9984 H          1  LIG1   0.0700
     30 H4        -44.6845   -43.9946     4.1789 H          1  LIG1   0.1500
     31 H5        -46.7225   -41.9314     0.8483 H          1  LIG1   0.4300
     32 H6        -46.3919   -44.8512     1.7208 H          1  LIG1   0.1700
     33 H7        -45.1656   -46.7249     0.7134 H          1  LIG1   0.1500
     34 H8        -42.6918   -43.9452    -1.4317 H          1  LIG1   0.1500
     35 H9        -47.9159   -41.2131     4.0714 H          1  LIG1   0.1500
     36 H10       -49.0443   -42.4515     5.8759 H          1  LIG1   0.1500
@<TRIPOS>BOND
     1    1    2 1
     2    1   27 1
     3    1   28 1
     4    1   29 1
     5    2   25 ar
     6    2    3 ar
     7    3    4 ar
     8    3   30 1
     9    4    5 1
    10    4   23 ar
    11    5    6 2
    12    5    7 2
    13    5    8 1
    14    8    9 1
    15    8   31 1
    16    9   17 ar
    17    9   10 ar
    18   10   11 ar
    19   10   32 1
    20   11   12 ar
    21   11   33 1
    22   12   13 1
    23   12   16 ar
    24   13   14 2
    25   13   15 1
    26   16   17 ar
    27   16   34 1
    28   17   18 1
    29   18   19 1
    30   19   20 1
    31   19   21 1
    32   19   22 1
    33   23   24 ar
    34   23   35 1
    35   24   25 ar
    36   24   36 1
    37   25   26 1
##########                 Name:     ZINC000373547885
##########          Protonation:                 none
##########               SMILES:   CN1C(=O)/C(=C\C2=CC=CC(OCC(=O)[O-])=C2)C2=CC(Br)=CN=C21
##########            Long Name:   NO_LONG_NAME
##########          FlexRecCode: 1
##########               Number:                38293
##########   Ligand Source File: /bks/ex7/3D/GF/ADRM/GFADRM.xam.db2.gz
##########                 Rank:                    1
##########               Setnum:                   99
##########             Matchnum:                    1
##########                Cloud:                    1
##########        Electrostatic:           -70.551079
##########                 Gist:             0.000000
##########        Van der Waals:           -27.321213
##########  Ligand Polar Desolv:            35.180401
########## Ligand Apolar Desolv:            -7.036285
##########      Internal Energy:             0.000000
##########      Receptor Energy:             0.000000
########## Receptor Desolvation:             0.000000
########## Receptor Hydrophobic:             0.000000
##########         Total Energy:           -69.728180
##########        Ligand Charge:            -1.000000
##########            Arbitrary:    +999.9990
##########        Ligand Energy:             0.000000

@<TRIPOS>MOLECULE
 ZINC000373547885      none
   36    38    -1     0     0



@<TRIPOS>ATOM
      1 C1        -41.6167   -38.5016     2.6367 C.3        1  LIG1   0.0800
      2 N1        -43.0549   -38.7556     2.7527 N.am       1  LIG1  -0.5400
      3 C2        -43.6097   -39.9792     2.7340 C.2        1  LIG1   0.5600
      4 O1        -43.0136   -41.0342     2.6204 O.2        1  LIG1  -0.4700
      5 C3        -45.0688   -39.8179     2.8754 C.2        1  LIG1  -0.1800
      6 C4        -46.0143   -40.7991     2.9061 C.2        1  LIG1   0.0700
      7 C5        -45.6077   -42.2089     2.9611 C.ar       1  LIG1  -0.0800
      8 C6        -45.4260   -42.8409     4.1972 C.ar       1  LIG1  -0.1000
      9 C7        -45.0441   -44.1651     4.2431 C.ar       1  LIG1  -0.0900
     10 C8        -44.8396   -44.8722     3.0721 C.ar       1  LIG1  -0.1900
     11 C9        -45.0170   -44.2554     1.8399 C.ar       1  LIG1   0.1300
     12 O2        -44.8145   -44.9574     0.6939 O.3        1  LIG1  -0.2800
     13 C10       -43.8489   -46.0097     0.7398 C.3        1  LIG1  -0.0100
     14 C11       -43.2190   -46.1731    -0.6194 C.2        1  LIG1   0.5000
     15 O3        -43.7119   -46.9369    -1.4320 O.co2      1  LIG1  -0.6700
     16 O4        -42.2163   -45.5416    -0.9066 O.co2      1  LIG1  -0.6900
     17 C12       -45.4056   -42.9291     1.7782 C.ar       1  LIG1  -0.1200
     18 C13       -45.2810   -38.3571     2.9769 C.ar       1  LIG1  -0.1400
     19 C14       -46.4112   -37.5600     3.1243 C.ar       1  LIG1   0.0000
     20 C15       -46.2376   -36.1848     3.1862 C.ar       1  LIG1  -0.1800
     21 Br1       -47.7283   -35.0389     3.3864 Br         1  LIG1  -0.0300
     22 C16       -44.9591   -35.6633     3.0996 C.ar       1  LIG1   0.1700
     23 N2        -43.9052   -36.4418     2.9597 N.ar       1  LIG1  -0.4900
     24 C17       -44.0121   -37.7636     2.9013 C.ar       1  LIG1   0.3700
     25 H1        -41.0880   -39.4488     2.5300 H          1  LIG1   0.0700
     26 H2        -41.4272   -37.8791     1.7623 H          1  LIG1   0.0900
     27 H3        -41.2652   -37.9879     3.5314 H          1  LIG1   0.0900
     28 H4        -47.0626   -40.5396     2.8899 H          1  LIG1   0.1500
     29 H5        -45.5844   -42.2918     5.1136 H          1  LIG1   0.1200
     30 H6        -44.9037   -44.6517     5.1970 H          1  LIG1   0.1200
     31 H7        -44.5401   -45.9090     3.1158 H          1  LIG1   0.1300
     32 H8        -43.0780   -45.7639     1.4703 H          1  LIG1   0.0600
     33 H9        -44.3386   -46.9399     1.0276 H          1  LIG1   0.0600
     34 H10       -45.5437   -42.4488     0.8208 H          1  LIG1   0.1400
     35 H11       -47.3959   -37.9990     3.1885 H          1  LIG1   0.1500
     36 H12       -44.8217   -34.5932     3.1476 H          1  LIG1   0.1700
@<TRIPOS>BOND
     1    1    2 1
     2    1   25 1
     3    1   26 1
     4    1   27 1
     5    2   24 1
     6    2    3 am
     7    3    4 2
     8    3    5 1
     9    5    6 2
    10    5   18 1
    11    6    7 1
    12    6   28 1
    13    7   17 ar
    14    7    8 ar
    15    8    9 ar
    16    8   29 1
    17    9   10 ar
    18    9   30 1
    19   10   11 ar
    20   10   31 1
    21   11   12 1
    22   11   17 ar
    23   12   13 1
    24   13   14 1
    25   13   32 1
    26   13   33 1
    27   14   15 2
    28   14   16 1
    29   17   34 1
    30   18   24 ar
    31   18   19 ar
    32   19   20 ar
    33   19   35 1
    34   20   21 1
    35   20   22 ar
    36   22   23 ar
    37   22   36 1
    38   23   24 ar
##########                 Name:     ZINC000828141482
##########          Protonation:                 none
##########               SMILES:   CC1=NN(C2=CC=C(C(=O)NC3=NC(CCCC(=O)[O-])=CS3)C=C2)CC1
##########            Long Name:   NO_LONG_NAME
##########          FlexRecCode: 1
##########               Number:                 2147
##########   Ligand Source File: /bks/ex4/3D/FG/ADRM/FGADRM.xbn.db2.gz
##########                 Rank:                    1
##########               Setnum:                   77
##########             Matchnum:                    1
##########                Cloud:                    1
##########        Electrostatic:           -76.240685
##########                 Gist:             0.000000
##########        Van der Waals:           -27.964777
##########  Ligand Polar Desolv:            38.886322
########## Ligand Apolar Desolv:            -7.352554
##########      Internal Energy:             0.000000
##########      Receptor Energy:             0.000000
########## Receptor Desolvation:             0.000000
########## Receptor Hydrophobic:             0.000000
##########         Total Energy:           -72.671692
##########        Ligand Charge:            -1.000000
##########            Arbitrary:    +999.9990
##########        Ligand Energy:             0.000000

@<TRIPOS>MOLECULE
 ZINC000917770068      none
   50    54     0     0     0



@<TRIPOS>ATOM
      1 O1        -43.3995   -48.0335    -0.0885 O.2        1  LIG1  -0.5500
      2 C1        -42.3490   -47.6532     0.3929 C.2        1  LIG1   0.5800
      3 N1        -42.3554   -46.7879     1.4262 N.am       1  LIG1  -0.7100
      4 C2        -43.6274   -46.3054     1.9698 C.3        1  LIG1   0.2000
      5 C3        -43.6909   -44.8051     1.8431 C.2        1  LIG1   0.0900
      6 N2        -42.7652   -44.0403     1.3250 N.2        1  LIG1  -0.2600
      7 N3        -43.2050   -42.7129     1.3936 N.pl3      1  LIG1  -0.3000
      8 C4        -42.5026   -41.5867     0.9425 C.ar       1  LIG1   0.1500
      9 C5        -43.0566   -40.3209     1.0781 C.ar       1  LIG1  -0.1300
     10 C6        -42.3621   -39.2133     0.6327 C.ar       1  LIG1  -0.1000
     11 C7        -41.1160   -39.3643     0.0518 C.ar       1  LIG1  -0.1200
     12 C8        -40.5621   -40.6236    -0.0850 C.ar       1  LIG1  -0.1000
     13 C9        -41.2489   -41.7345     0.3645 C.ar       1  LIG1  -0.1100
     14 C10       -44.4300   -42.7094     1.9726 C.2        1  LIG1   0.0600
     15 C11       -44.7552   -43.9903     2.2551 C.2        1  LIG1  -0.2300
     16 C12       -46.1198   -44.0528     2.9069 C.3        1  LIG1  -0.0400
     17 C13       -46.4039   -42.6100     3.3791 C.3        1  LIG1  -0.1100
     18 C14       -45.5430   -41.7782     2.4014 C.3        1  LIG1  -0.0500
     19 C15       -41.0721   -48.1424    -0.1489 C.2        1  LIG1  -0.2800
     20 C16       -40.1809   -48.8444     0.6574 C.2        1  LIG1   0.0800
     21 C17       -38.9755   -49.2966     0.1129 C.2        1  LIG1  -0.2100
     22 C18       -38.6826   -49.0504    -1.1902 C.2        1  LIG1   0.1700
     23 C19       -37.3288   -49.6388    -1.5367 C.3        1  LIG1  -0.0900
     24 C20       -36.6411   -49.8928    -0.1786 C.3        1  LIG1  -0.1200
     25 C21       -37.8496   -50.0715     0.7652 C.3        1  LIG1  -0.0700
     26 N4        -39.5522   -48.3651    -1.9796 N.am       1  LIG1  -0.5900
     27 C22       -40.7259   -47.9133    -1.5056 C.2        1  LIG1   0.5400
     28 O2        -41.4862   -47.3018    -2.2362 O.2        1  LIG1  -0.5400
     29 H1        -41.5178   -46.4847     1.8099 H          1  LIG1   0.4200
     30 H2        -44.4523   -46.7522     1.4149 H          1  LIG1   0.0900
     31 H3        -43.7029   -46.5849     3.0206 H          1  LIG1   0.0800
     32 H4        -44.0299   -40.2026     1.5310 H          1  LIG1   0.1300
     33 H5        -42.7927   -38.2284     0.7378 H          1  LIG1   0.1300
     34 H6        -40.5748   -38.4968    -0.2961 H          1  LIG1   0.1300
     35 H7        -39.5892   -40.7382    -0.5397 H          1  LIG1   0.1300
     36 H8        -40.8156   -42.7178     0.2575 H          1  LIG1   0.1300
     37 H9        -46.8710   -44.3692     2.1832 H          1  LIG1   0.0800
     38 H10       -46.1023   -44.7333     3.7581 H          1  LIG1   0.0700
     39 H11       -47.4605   -42.3655     3.2696 H          1  LIG1   0.0900
     40 H12       -46.0770   -42.4659     4.4088 H          1  LIG1   0.0800
     41 H13       -45.1296   -40.9063     2.9085 H          1  LIG1   0.0800
     42 H14       -46.1372   -41.4706     1.5410 H          1  LIG1   0.0900
     43 H15       -40.4181   -49.0375     1.6933 H          1  LIG1   0.1500
     44 H16       -37.4514   -50.5759    -2.0799 H          1  LIG1   0.1000
     45 H17       -36.7486   -48.9307    -2.1283 H          1  LIG1   0.0900
     46 H18       -36.0360   -50.7987    -0.2119 H          1  LIG1   0.0900
     47 H19       -36.0384   -49.0347     0.1190 H          1  LIG1   0.0800
     48 H20       -37.6261   -49.6587     1.7489 H          1  LIG1   0.0800
     49 H21       -38.1133   -51.1259     0.8470 H          1  LIG1   0.0800
     50 H22       -39.3212   -48.2008    -2.9072 H          1  LIG1   0.4200
@<TRIPOS>BOND
     1    1    2 2
     2    2    3 am
     3    2   19 1
     4    3    4 1
     5    3   29 1
     6    4    5 1
     7    4   30 1
     8    4   31 1
     9    5   15 1
    10    5    6 2
    11    6    7 1
    12    7    8 1
    13    7   14 1
    14    8   13 ar
    15    8    9 ar
    16    9   10 ar
    17    9   32 1
    18   10   11 ar
    19   10   33 1
    20   11   12 ar
    21   11   34 1
    22   12   13 ar
    23   12   35 1
    24   13   36 1
    25   14   18 1
    26   14   15 2
    27   15   16 1
    28   16   17 1
    29   16   37 1
    30   16   38 1
    31   17   18 1
    32   17   39 1
    33   17   40 1
    34   18   41 1
    35   18   42 1
    36   19   27 1
    37   19   20 2
    38   20   21 1
    39   20   43 1
    40   21   25 1
    41   21   22 2
    42   22   23 1
    43   22   26 1
    44   23   24 1
    45   23   44 1
    46   23   45 1
    47   24   25 1
    48   24   46 1
    49   24   47 1
    50   25   48 1
    51   25   49 1
    52   26   27 am
    53   26   50 1
    54   27   28 2
##########                 Name:     ZINC001517349464
##########          Protonation:                 none
##########               SMILES:   O=C([O-])[C@H]1C[C@@H](C(=O)N(CC2=CSC=C2)C2=CC=CC=C2)C1
##########            Long Name:   NO_LONG_NAME
##########          FlexRecCode: 1
##########               Number:                35596
##########   Ligand Source File: /bks/ex6/3D/DG/ADRM/DGADRM.xbi.db2.gz
##########                 Rank:                    1
##########               Setnum:                  188
##########             Matchnum:                    1
##########                Cloud:                    1
##########        Electrostatic:           -75.458931
##########                 Gist:             0.000000
##########        Van der Waals:           -20.362755
##########  Ligand Polar Desolv:            36.676579
########## Ligand Apolar Desolv:            -7.354192
##########      Internal Energy:             0.000000
##########      Receptor Energy:             0.000000
########## Receptor Desolvation:             0.000000
########## Receptor Hydrophobic:             0.000000
##########         Total Energy:           -66.499298
##########        Ligand Charge:            -1.000000
##########            Arbitrary:    +999.9990
##########        Ligand Energy:             0.000000

@<TRIPOS>MOLECULE
 ZINC001517349464      none
   38    40    -1     0     0



@<TRIPOS>ATOM
      1 O1        -43.2098   -48.0046    -0.7623 O.co2      1  LIG1  -0.7000
      2 C1        -43.0494   -46.8465    -0.4160 C.2        1  LIG1   0.5000
      3 O2        -42.0522   -46.2383    -0.7655 O.co2      1  LIG1  -0.7000
      4 C2        -44.0868   -46.1651     0.4386 C.3        1  LIG1  -0.1800
      5 H1        -44.9300   -46.8130     0.6781 H          1  LIG1   0.0800
      6 C3        -43.4990   -45.4415     1.6616 C.3        1  LIG1  -0.0900
      7 C4        -44.5091   -44.3160     1.3829 C.3        1  LIG1  -0.1500
      8 H2        -45.4685   -44.4574     1.8805 H          1  LIG1   0.1100
      9 C5        -43.9435   -42.9338     1.5843 C.2        1  LIG1   0.5300
     10 O3        -42.7424   -42.7658     1.5959 O.2        1  LIG1  -0.5100
     11 N1        -44.7724   -41.8843     1.7515 N.am       1  LIG1  -0.5500
     12 C6        -46.2232   -42.0872     1.7375 C.3        1  LIG1   0.1600
     13 C7        -46.7046   -42.3681     3.1377 C.2        1  LIG1  -0.1300
     14 C8        -45.8805   -42.4052     4.1859 C.2        1  LIG1  -0.1900
     15 S1        -46.7972   -42.7586     5.6447 S.3        1  LIG1   0.1000
     16 C9        -48.2924   -42.8383     4.7218 C.2        1  LIG1  -0.2100
     17 C10       -48.0364   -42.6013     3.4343 C.2        1  LIG1  -0.1200
     18 C11       -44.2473   -40.6009     1.9385 C.ar       1  LIG1   0.1600
     19 C12       -44.9413   -39.6690     2.6991 C.ar       1  LIG1  -0.1700
     20 C13       -44.4203   -38.4031     2.8817 C.ar       1  LIG1  -0.1000
     21 C14       -43.2091   -38.0629     2.3077 C.ar       1  LIG1  -0.1500
     22 C15       -42.5158   -38.9883     1.5494 C.ar       1  LIG1  -0.1000
     23 C16       -43.0282   -40.2581     1.3685 C.ar       1  LIG1  -0.1600
     24 C17       -44.5033   -44.7803    -0.0849 C.3        1  LIG1  -0.0900
     25 H3        -43.6743   -45.9624     2.6029 H          1  LIG1   0.0600
     26 H4        -42.4601   -45.1380     1.5317 H          1  LIG1   0.0900
     27 H5        -46.7119   -41.1898     1.3583 H          1  LIG1   0.1000
     28 H6        -46.4656   -42.9326     1.0936 H          1  LIG1   0.1100
     29 H7        -44.8135   -42.2435     4.1449 H          1  LIG1   0.1700
     30 H8        -49.2689   -43.0432     5.1350 H          1  LIG1   0.1600
     31 H9        -48.8087   -42.5995     2.6793 H          1  LIG1   0.1400
     32 H10       -45.8876   -39.9339     3.1471 H          1  LIG1   0.1800
     33 H11       -44.9595   -37.6779     3.4732 H          1  LIG1   0.1200
     34 H12       -42.8039   -37.0721     2.4517 H          1  LIG1   0.1200
     35 H13       -41.5703   -38.7193     1.1018 H          1  LIG1   0.1200
     36 H14       -42.4863   -40.9803     0.7761 H          1  LIG1   0.1200
     37 H15       -43.7391   -44.2963    -0.6930 H          1  LIG1   0.0900
     38 H16       -45.4885   -44.7664    -0.5512 H          1  LIG1   0.0700
@<TRIPOS>BOND
     1    1    2 2
     2    2    3 1
     3    2    4 1
     4    4    5 1
     5    4   24 1
     6    4    6 1
     7    6    7 1
     8    6   25 1
     9    6   26 1
    10    7    8 1
    11    7    9 1
    12    7   24 1
    13    9   10 2
    14    9   11 am
    15   11   12 1
    16   11   18 1
    17   12   13 1
    18   12   27 1
    19   12   28 1
    20   13   17 1
    21   13   14 2
    22   14   15 1
    23   14   29 1
    24   15   16 1
    25   16   17 2
    26   16   30 1
    27   17   31 1
    28   18   23 ar
    29   18   19 ar
    30   19   20 ar
    31   19   32 1
    32   20   21 ar
    33   20   33 1
    34   21   22 ar
    35   21   34 1
    36   22   23 ar
    37   22   35 1
    38   23   36 1
    39   24   37 1
    40   24   38 1
##########                 Name:     ZINC001598963683
##########          Protonation:                 none
##########               SMILES:   COC(=O)C1=CC=C(C(=O)[O-])C(NC(=O)N(C)CC2=CC=CC(OC)=C2)=C1
##########            Long Name:   NO_LONG_NAME
##########          FlexRecCode: 1
##########               Number:                53559
##########   Ligand Source File: /bks/ex4/3D/FF/ADRM/FFADRM.xbo.db2.gz
##########                 Rank:                    1
##########               Setnum:                   17
##########             Matchnum:                    1
##########                Cloud:                    1
##########        Electrostatic:           -78.907227
##########                 Gist:             0.000000
##########        Van der Waals:           -28.483486
##########  Ligand Polar Desolv:            34.312683
########## Ligand Apolar Desolv:            -5.842130
##########      Internal Energy:             0.000000
##########      Receptor Energy:             0.000000
########## Receptor Desolvation:             0.000000
########## Receptor Hydrophobic:             0.000000
##########         Total Energy:           -78.920166
##########        Ligand Charge:            -1.000000
##########            Arbitrary:    +999.9990
##########        Ligand Energy:             0.000000

@<TRIPOS>MOLECULE
 ZINC000237842634      none
   37    39    -1     0     0



@<TRIPOS>ATOM
      1 C1        -45.3886   -44.9612     0.5395 C.3        1  LIG1  -0.1000
      2 C2        -44.4587   -43.7754     0.5303 C.ar       1  LIG1  -0.0500
      3 C3        -44.8295   -42.6126     1.1431 C.ar       1  LIG1  -0.1200
      4 C4        -43.9744   -41.5140     1.1375 C.ar       1  LIG1   0.1200
      5 N1        -44.3587   -40.3316     1.7641 N.am       1  LIG1  -0.6500
      6 C5        -43.4262   -39.5184     2.2989 C.2        1  LIG1   0.5900
      7 O1        -42.2492   -39.8177     2.2340 O.2        1  LIG1  -0.5100
      8 C6        -43.8327   -38.2679     2.9618 C.2        1  LIG1   0.0200
      9 C7        -42.9390   -37.4138     3.5095 C.2        1  LIG1  -0.2100
     10 S1        -43.7759   -36.0826     4.1816 S.3        1  LIG1   0.1900
     11 C8        -45.3144   -36.7705     3.6739 C.2        1  LIG1   0.0900
     12 C9        -46.6414   -36.1604     3.9051 C.ar       1  LIG1  -0.0400
     13 C10       -47.7957   -36.8054     3.4592 C.ar       1  LIG1  -0.0400
     14 C11       -49.0311   -36.2325     3.6778 C.ar       1  LIG1  -0.1500
     15 C12       -49.1272   -35.0181     4.3386 C.ar       1  LIG1   0.1100
     16 F1        -50.3396   -34.4609     4.5502 F          1  LIG1  -0.1300
     17 C13       -47.9839   -34.3734     4.7834 C.ar       1  LIG1  -0.1500
     18 C14       -46.7441   -34.9407     4.5750 C.ar       1  LIG1  -0.0700
     19 N2        -45.1017   -37.8948     3.0600 N.2        1  LIG1  -0.4300
     20 C15       -42.7356   -41.5950     0.5074 C.ar       1  LIG1  -0.1500
     21 C16       -42.3545   -42.7635    -0.1120 C.ar       1  LIG1  -0.0800
     22 C17       -43.2133   -43.8681    -0.1012 C.ar       1  LIG1  -0.1200
     23 C18       -42.8123   -45.1212    -0.7616 C.2        1  LIG1   0.5200
     24 O2        -43.0797   -45.3036    -1.9414 O.co2      1  LIG1  -0.6800
     25 O3        -42.2117   -45.9801    -0.1305 O.co2      1  LIG1  -0.6900
     26 H1        -46.3028   -44.7020     1.0736 H          1  LIG1   0.0700
     27 H2        -45.6331   -45.2394    -0.4855 H          1  LIG1   0.0500
     28 H3        -44.9025   -45.8002     1.0375 H          1  LIG1   0.0700
     29 H4        -45.7895   -42.5449     1.6333 H          1  LIG1   0.1200
     30 H5        -45.2974   -40.0930     1.8158 H          1  LIG1   0.4100
     31 H6        -41.8678   -37.5508     3.5212 H          1  LIG1   0.2000
     32 H7        -47.7219   -37.7515     2.9436 H          1  LIG1   0.1500
     33 H8        -49.9250   -36.7308     3.3331 H          1  LIG1   0.1400
     34 H9        -48.0641   -33.4270     5.2975 H          1  LIG1   0.1400
     35 H10       -45.8538   -34.4374     4.9221 H          1  LIG1   0.1400
     36 H11       -42.0742   -40.7411     0.5042 H          1  LIG1   0.1200
     37 H12       -41.3942   -42.8287    -0.6018 H          1  LIG1   0.1200
@<TRIPOS>BOND
     1    1    2 1
     2    1   26 1
     3    1   27 1
     4    1   28 1
     5    2   22 ar
     6    2    3 ar
     7    3    4 ar
     8    3   29 1
     9    4    5 1
    10    4   20 ar
    11    5    6 am
    12    5   30 1
    13    6    7 2
    14    6    8 1
    15    8   19 1
    16    8    9 2
    17    9   10 1
    18    9   31 1
    19   10   11 1
    20   11   12 1
    21   11   19 2
    22   12   18 ar
    23   12   13 ar
    24   13   14 ar
    25   13   32 1
    26   14   15 ar
    27   14   33 1
    28   15   16 1
    29   15   17 ar
    30   17   18 ar
    31   17   34 1
    32   18   35 1
    33   20   21 ar
    34   20   36 1
    35   21   22 ar
    36   21   37 1
    37   22   23 1
    38   23   24 2
    39   23   25 1
##########                 Name:     ZINC000833265816
##########          Protonation:                 none
##########               SMILES:   O=C([O-])CC1=CC=C(NC(=O)C2=CN=CC(C3=CC=CC=C3)=C2)C=C1
##########            Long Name:   NO_LONG_NAME
##########          FlexRecCode: 1
##########               Number:                58520
##########   Ligand Source File: /bks/ex5/3D/EH/ADRM/EHADRM.xaw.db2.gz
##########                 Rank:                    1
##########               Setnum:                   77
##########             Matchnum:                    1
##########                Cloud:                    1
##########        Electrostatic:           -69.379410
##########                 Gist:             0.000000
##########        Van der Waals:           -29.924400
##########  Ligand Polar Desolv:            35.449116
########## Ligand Apolar Desolv:            -6.637023
##########      Internal Energy:             0.000000
##########      Receptor Energy:             0.000000
########## Receptor Desolvation:             0.000000
########## Receptor Hydrophobic:             0.000000
##########         Total Energy:           -70.491714
##########        Ligand Charge:            -1.000000
##########            Arbitrary:    +999.9990
##########        Ligand Energy:             0.000000

@<TRIPOS>MOLECULE
 ZINC000833265816      none
   40    42    -1     0     0



@<TRIPOS>ATOM
      1 O1        -41.7058   -46.8628    -0.1444 O.co2      1  LIG1  -0.6900
      2 C1        -42.5819   -46.1874    -0.6574 C.2        1  LIG1   0.5000
      3 O2        -42.3232   -45.4790    -1.6153 O.co2      1  LIG1  -0.7000
      4 C2        -43.9855   -46.2332    -0.1110 C.3        1  LIG1  -0.1600
      5 C3        -44.3963   -44.8536     0.3352 C.ar       1  LIG1  -0.0300
      6 C4        -44.1457   -44.4449     1.6322 C.ar       1  LIG1  -0.1000
      7 C5        -44.5208   -43.1811     2.0443 C.ar       1  LIG1  -0.1400
      8 C6        -45.1498   -42.3203     1.1541 C.ar       1  LIG1   0.1100
      9 N1        -45.5305   -41.0399     1.5681 N.am       1  LIG1  -0.6600
     10 C7        -44.8249   -40.4030     2.5235 C.2        1  LIG1   0.5600
     11 O3        -43.8576   -40.9414     3.0255 O.2        1  LIG1  -0.5100
     12 C8        -45.2273   -39.0495     2.9610 C.ar       1  LIG1  -0.1800
     13 C9        -44.2829   -38.1630     3.4815 C.ar       1  LIG1   0.1300
     14 N2        -44.6344   -36.9553     3.8729 N.ar       1  LIG1  -0.4800
     15 C10       -45.8790   -36.5298     3.7934 C.ar       1  LIG1   0.1300
     16 C11       -46.8858   -37.3505     3.2864 C.ar       1  LIG1  -0.1000
     17 C12       -48.2844   -36.8612     3.2019 C.ar       1  LIG1  -0.0400
     18 C13       -49.1334   -37.3395     2.2060 C.ar       1  LIG1  -0.1100
     19 C14       -50.4334   -36.8813     2.1323 C.ar       1  LIG1  -0.1200
     20 C15       -50.8933   -35.9483     3.0452 C.ar       1  LIG1  -0.1200
     21 C16       -50.0549   -35.4712     4.0355 C.ar       1  LIG1  -0.1200
     22 C17       -48.7548   -35.9264     4.1216 C.ar       1  LIG1  -0.1100
     23 C18       -46.5589   -38.6357     2.8544 C.ar       1  LIG1  -0.0100
     24 C19       -45.3996   -42.7338    -0.1480 C.ar       1  LIG1  -0.1100
     25 C20       -45.0176   -43.9970    -0.5551 C.ar       1  LIG1  -0.1000
     26 H1        -44.6665   -46.5817    -0.8875 H          1  LIG1   0.0700
     27 H2        -44.0229   -46.9157     0.7381 H          1  LIG1   0.0700
     28 H3        -43.6565   -45.1147     2.3239 H          1  LIG1   0.1200
     29 H4        -44.3255   -42.8628     3.0577 H          1  LIG1   0.1200
     30 H5        -46.3025   -40.6102     1.1676 H          1  LIG1   0.4100
     31 H6        -43.2512   -38.4713     3.5647 H          1  LIG1   0.1600
     32 H7        -46.1227   -35.5315     4.1259 H          1  LIG1   0.1600
     33 H8        -48.7750   -38.0670     1.4928 H          1  LIG1   0.1300
     34 H9        -51.0922   -37.2510     1.3607 H          1  LIG1   0.1300
     35 H10       -51.9114   -35.5933     2.9833 H          1  LIG1   0.1200
     36 H11       -50.4194   -34.7434     4.7454 H          1  LIG1   0.1300
     37 H12       -48.1008   -35.5525     4.8955 H          1  LIG1   0.1300
     38 H13       -47.3150   -39.2964     2.4566 H          1  LIG1   0.1500
     39 H14       -45.8888   -42.0669    -0.8425 H          1  LIG1   0.1300
     40 H15       -45.2112   -44.3190    -1.5677 H          1  LIG1   0.1200
@<TRIPOS>BOND
     1    1    2 2
     2    2    3 1
     3    2    4 1
     4    4    5 1
     5    4   26 1
     6    4   27 1
     7    5   25 ar
     8    5    6 ar
     9    6    7 ar
    10    6   28 1
    11    7    8 ar
    12    7   29 1
    13    8    9 1
    14    8   24 ar
    15    9   10 am
    16    9   30 1
    17   10   11 2
    18   10   12 1
    19   12   23 ar
    20   12   13 ar
    21   13   14 ar
    22   13   31 1
    23   14   15 ar
    24   15   16 ar
    25   15   32 1
    26   16   17 1
    27   16   23 ar
    28   17   22 ar
    29   17   18 ar
    30   18   19 ar
    31   18   33 1
    32   19   20 ar
    33   19   34 1
    34   20   21 ar
    35   20   35 1
    36   21   22 ar
    37   21   36 1
    38   22   37 1
    39   23   38 1
    40   24   25 ar
    41   24   39 1
    42   25   40 1
##########                 Name:     ZINC000020145427
##########          Protonation:                 none
##########               SMILES:   O=C([O-])C1=CC=C(NC(=O)/C=C/C2=CC=C(C3=CC=C(F)C(Cl)=C3)O2)C=C1Cl
##########            Long Name:   NO_LONG_NAME
##########          FlexRecCode: 1
##########               Number:                 1365
##########   Ligand Source File: /bks/ex2/3D/HK/ABRM/HKABRM.xaa.db2.gz
##########                 Rank:                    1
##########               Setnum:                  185
##########             Matchnum:                    1
##########                Cloud:                    1
##########        Electrostatic:           -61.147419
##########                 Gist:             0.000000
##########        Van der Waals:           -36.108185
##########  Ligand Polar Desolv:            37.676743
########## Ligand Apolar Desolv:            -7.573344
##########      Internal Energy:             0.000000
##########      Receptor Energy:             0.000000
########## Receptor Desolvation:             0.000000
########## Receptor Hydrophobic:             0.000000
##########         Total Energy:           -67.152199
##########        Ligand Charge:            -1.000000
##########            Arbitrary:    +999.9990
##########        Ligand Energy:             0.000000

@<TRIPOS>MOLECULE
 ZINC000825077441      none
   45    47    -1     0     0



@<TRIPOS>ATOM
      1 C1        -42.8673   -40.3229    -0.2358 C.3        1  LIG1  -0.1600
      2 C2        -42.3644   -41.7667    -0.2988 C.3        1  LIG1   0.2300
      3 H1        -41.6904   -41.9533     0.5373 H          1  LIG1   0.1100
      4 N1        -43.5037   -42.6844    -0.2220 N.am       1  LIG1  -0.7200
      5 C3        -43.9602   -43.0930     0.9784 C.2        1  LIG1   0.5300
      6 O1        -43.4277   -42.7009     1.9953 O.2        1  LIG1  -0.5300
      7 C4        -45.1321   -44.0371     1.0574 C.3        1  LIG1  -0.0800
      8 H2        -45.7880   -43.8746     0.2021 H          1  LIG1   0.1100
      9 C5        -44.6259   -45.4808     1.0449 C.3        1  LIG1   0.1600
     10 N2        -44.3171   -45.8782    -0.3309 N.am       1  LIG1  -0.7800
     11 C6        -43.0807   -45.6783    -0.8288 C.2        1  LIG1   0.6600
     12 O2        -42.2164   -45.1652    -0.1318 O.co2      1  LIG1  -0.7200
     13 O3        -42.8230   -46.0101    -1.9775 O.co2      1  LIG1  -0.7300
     14 C7        -45.8963   -43.7838     2.3315 C.ar       1  LIG1  -0.0500
     15 C8        -45.5594   -44.4646     3.4865 C.ar       1  LIG1  -0.0800
     16 C9        -46.2602   -44.2324     4.6551 C.ar       1  LIG1  -0.1200
     17 C10       -47.2978   -43.3190     4.6688 C.ar       1  LIG1  -0.1200
     18 C11       -47.6341   -42.6376     3.5142 C.ar       1  LIG1  -0.1200
     19 C12       -46.9305   -42.8667     2.3466 C.ar       1  LIG1  -0.1100
     20 C13       -41.6290   -41.9863    -1.5957 C.2        1  LIG1   0.2900
     21 N3        -41.8837   -41.3671    -2.7109 N.2        1  LIG1  -0.4800
     22 C14       -41.0361   -41.8021    -3.6788 C.ar       1  LIG1   0.0600
     23 C15       -40.8707   -41.4834    -5.0288 C.ar       1  LIG1  -0.0400
     24 C16       -39.9030   -42.1090    -5.7630 C.ar       1  LIG1  -0.1200
     25 C17       -39.0780   -43.0619    -5.1808 C.ar       1  LIG1  -0.0200
     26 Cl1       -37.8552   -43.8424    -6.1344 Cl         1  LIG1  -0.0600
     27 C18       -39.2235   -43.3924    -3.8488 C.ar       1  LIG1  -0.1000
     28 C19       -40.2015   -42.7666    -3.0885 C.ar       1  LIG1   0.0600
     29 N4        -40.5979   -42.8572    -1.7691 N.pl3      1  LIG1  -0.5900
     30 H3        -43.5413   -40.1363    -1.0719 H          1  LIG1   0.0700
     31 H4        -43.3992   -40.1642     0.7021 H          1  LIG1   0.0700
     32 H5        -42.0197   -39.6401    -0.2930 H          1  LIG1   0.0800
     33 H6        -43.9297   -42.9979    -1.0351 H          1  LIG1   0.4200
     34 H7        -43.7258   -45.5555     1.6553 H          1  LIG1   0.0500
     35 H8        -45.3948   -46.1391     1.4494 H          1  LIG1   0.0500
     36 H9        -45.0026   -46.2851    -0.8836 H          1  LIG1   0.3700
     37 H10       -44.7488   -45.1783     3.4756 H          1  LIG1   0.1200
     38 H11       -45.9974   -44.7648     5.5572 H          1  LIG1   0.1200
     39 H12       -47.8458   -43.1380     5.5817 H          1  LIG1   0.1200
     40 H13       -48.4448   -41.9242     3.5249 H          1  LIG1   0.1200
     41 H14       -47.1931   -42.3342     1.4444 H          1  LIG1   0.1200
     42 H15       -41.5073   -40.7438    -5.4918 H          1  LIG1   0.1400
     43 H16       -39.7787   -41.8599    -6.8065 H          1  LIG1   0.1400
     44 H17       -38.5796   -44.1345    -3.4004 H          1  LIG1   0.1300
     45 H18       -40.2133   -43.4353    -1.0916 H          1  LIG1   0.4300
@<TRIPOS>BOND
     1    1    2 1
     2    1   30 1
     3    1   31 1
     4    1   32 1
     5    2    3 1
     6    2    4 1
     7    2   20 1
     8    4    5 am
     9    4   33 1
    10    5    6 2
    11    5    7 1
    12    7    8 1
    13    7    9 1
    14    7   14 1
    15    9   10 1
    16    9   34 1
    17    9   35 1
    18   10   11 am
    19   10   36 1
    20   11   12 2
    21   11   13 1
    22   14   19 ar
    23   14   15 ar
    24   15   16 ar
    25   15   37 1
    26   16   17 ar
    27   16   38 1
    28   17   18 ar
    29   17   39 1
    30   18   19 ar
    31   18   40 1
    32   19   41 1
    33   20   29 1
    34   20   21 2
    35   21   22 1
    36   22   28 ar
    37   22   23 ar
    38   23   24 ar
    39   23   42 1
    40   24   25 ar
    41   24   43 1
    42   25   26 1
    43   25   27 ar
    44   27   28 ar
    45   27   44 1
    46   28   29 1
    47   29   45 1
##########                 Name:     ZINC000237978528
##########          Protonation:                 none
##########               SMILES:   O=C([O-])CC[C@@H]1CCCN(C(=O)C2=NN(C3=CC=CC=C3)C3=C2CCC3)C1
##########            Long Name:   NO_LONG_NAME
##########          FlexRecCode: 1
##########               Number:                10662
##########   Ligand Source File: /bks/ex4/3D/FG/AARM/FGAARM.xaa.db2.gz
##########                 Rank:                    1
##########               Setnum:                   26
##########             Matchnum:                    1
##########                Cloud:                    1
##########        Electrostatic:           -69.231926
##########                 Gist:             0.000000
##########        Van der Waals:           -32.337219
##########  Ligand Polar Desolv:            39.512222
########## Ligand Apolar Desolv:            -8.264529
##########      Internal Energy:             0.000000
##########      Receptor Energy:             0.000000
########## Receptor Desolvation:             0.000000
########## Receptor Hydrophobic:             0.000000
##########         Total Energy:           -70.321457
##########        Ligand Charge:            -1.000000
##########            Arbitrary:    +999.9990
##########        Ligand Energy:             0.000000

@<TRIPOS>MOLECULE
 ZINC000237978528      none
   51    54    -1     0     0



@<TRIPOS>ATOM
      1 O1        -42.0287   -45.9640    -1.5639 O.co2      1  LIG1  -0.7000
      2 C1        -42.8907   -46.1938    -0.7329 C.2        1  LIG1   0.4900
      3 O2        -43.5056   -47.2461    -0.7675 O.co2      1  LIG1  -0.7100
      4 C2        -43.1921   -45.1799     0.3405 C.3        1  LIG1  -0.1900
      5 C3        -44.6566   -44.7491     0.2383 C.3        1  LIG1  -0.0800
      6 C4        -44.9627   -43.7198     1.3281 C.3        1  LIG1  -0.1000
      7 H1        -44.4639   -44.0099     2.2529 H          1  LIG1   0.0700
      8 C5        -46.4739   -43.6564     1.5611 C.3        1  LIG1  -0.1200
      9 C6        -46.7785   -42.6509     2.6739 C.3        1  LIG1  -0.1300
     10 C7        -46.2964   -41.2610     2.2468 C.3        1  LIG1   0.0900
     11 N1        -44.8758   -41.3448     1.8815 N.am       1  LIG1  -0.6000
     12 C8        -43.9712   -40.5225     2.4490 C.2        1  LIG1   0.6000
     13 O3        -42.8228   -40.8927     2.5986 O.2        1  LIG1  -0.5300
     14 C9        -44.3749   -39.1721     2.8892 C.2        1  LIG1   0.0300
     15 N2        -45.5798   -38.6440     2.7954 N.2        1  LIG1  -0.2500
     16 N3        -45.5782   -37.4523     3.2754 N.pl3      1  LIG1  -0.2200
     17 C10       -46.6951   -36.6079     3.3317 C.ar       1  LIG1   0.1300
     18 C11       -46.5768   -35.3329     3.8686 C.ar       1  LIG1  -0.1200
     19 C12       -47.6795   -34.5030     3.9228 C.ar       1  LIG1  -0.1000
     20 C13       -48.9002   -34.9407     3.4429 C.ar       1  LIG1  -0.1200
     21 C14       -49.0212   -36.2100     2.9076 C.ar       1  LIG1  -0.1000
     22 C15       -47.9210   -37.0425     2.8455 C.ar       1  LIG1  -0.1000
     23 C16       -44.3340   -37.1302     3.7217 C.2        1  LIG1  -0.0200
     24 C17       -43.5443   -38.2022     3.4972 C.2        1  LIG1  -0.1500
     25 C18       -42.1355   -37.9287     3.9652 C.3        1  LIG1  -0.0500
     26 C19       -42.0570   -36.3934     4.1194 C.3        1  LIG1  -0.1100
     27 C20       -43.5363   -36.0217     4.3713 C.3        1  LIG1  -0.0400
     28 C21       -44.4592   -42.3421     0.8861 C.3        1  LIG1   0.1200
     29 H2        -43.0112   -45.6228     1.3198 H          1  LIG1   0.0500
     30 H3        -42.5477   -44.3104     0.2103 H          1  LIG1   0.0600
     31 H4        -44.8377   -44.3061    -0.7410 H          1  LIG1   0.0600
     32 H5        -45.3011   -45.6185     0.3685 H          1  LIG1   0.0600
     33 H6        -46.9701   -43.3428     0.6425 H          1  LIG1   0.0600
     34 H7        -46.8381   -44.6417     1.8522 H          1  LIG1   0.0700
     35 H8        -47.8530   -42.6235     2.8553 H          1  LIG1   0.0700
     36 H9        -46.2626   -42.9505     3.5861 H          1  LIG1   0.0600
     37 H10       -46.8752   -40.9215     1.3877 H          1  LIG1   0.0600
     38 H11       -46.4206   -40.5612     3.0732 H          1  LIG1   0.1200
     39 H12       -45.6237   -34.9906     4.2439 H          1  LIG1   0.1300
     40 H13       -47.5883   -33.5114     4.3407 H          1  LIG1   0.1300
     41 H14       -49.7612   -34.2900     3.4867 H          1  LIG1   0.1300
     42 H15       -49.9762   -36.5490     2.5339 H          1  LIG1   0.1400
     43 H16       -48.0160   -38.0335     2.4268 H          1  LIG1   0.1400
     44 H17       -41.9534   -38.4156     4.9234 H          1  LIG1   0.0800
     45 H18       -41.4159   -38.2723     3.2221 H          1  LIG1   0.0800
     46 H19       -41.4374   -36.1190     4.9732 H          1  LIG1   0.0900
     47 H20       -41.6863   -35.9287     3.2058 H          1  LIG1   0.0800
     48 H21       -43.7715   -35.0655     3.9038 H          1  LIG1   0.0800
     49 H22       -43.7396   -35.9810     5.4414 H          1  LIG1   0.0900
     50 H23       -43.3717   -42.3552     0.8149 H          1  LIG1   0.1000
     51 H24       -44.8881   -42.0912    -0.0841 H          1  LIG1   0.0700
@<TRIPOS>BOND
     1    1    2 2
     2    2    3 1
     3    2    4 1
     4    4    5 1
     5    4   29 1
     6    4   30 1
     7    5    6 1
     8    5   31 1
     9    5   32 1
    10    6    7 1
    11    6   28 1
    12    6    8 1
    13    8    9 1
    14    8   33 1
    15    8   34 1
    16    9   10 1
    17    9   35 1
    18    9   36 1
    19   10   11 1
    20   10   37 1
    21   10   38 1
    22   11   12 am
    23   11   28 1
    24   12   13 2
    25   12   14 1
    26   14   24 1
    27   14   15 2
    28   15   16 1
    29   16   17 1
    30   16   23 1
    31   17   22 ar
    32   17   18 ar
    33   18   19 ar
    34   18   39 1
    35   19   20 ar
    36   19   40 1
    37   20   21 ar
    38   20   41 1
    39   21   22 ar
    40   21   42 1
    41   22   43 1
    42   23   27 1
    43   23   24 2
    44   24   25 1
    45   25   26 1
    46   25   44 1
    47   25   45 1
    48   26   27 1
    49   26   46 1
    50   26   47 1
    51   27   48 1
    52   27   49 1
    53   28   50 1
    54   28   51 1
##########                 Name:     ZINC000910405180
##########          Protonation:                 none
##########               SMILES:   O=C([O-])C[C@@H](NC(=O)CCC[C@H](O)C1=CC=CC=C1)C1=CC=CC=C1Cl
##########            Long Name:   NO_LONG_NAME
##########          FlexRecCode: 1
##########               Number:                34476
##########   Ligand Source File: /bks/ex7/3D/GH/ADRM/GHADRM.xak.db2.gz
##########                 Rank:                    1
##########               Setnum:                  176
##########             Matchnum:                    1
##########                Cloud:                    1
##########        Electrostatic:           -75.596481
##########                 Gist:             0.000000
##########        Van der Waals:           -19.482882
##########  Ligand Polar Desolv:            33.978802
########## Ligand Apolar Desolv:            -7.243610
##########      Internal Energy:             0.000000
##########      Receptor Energy:             0.000000
########## Receptor Desolvation:             0.000000
########## Receptor Hydrophobic:             0.000000
##########         Total Energy:           -68.344170
##########        Ligand Charge:            -1.000000
##########            Arbitrary:    +999.9990
##########        Ligand Energy:             0.000000

@<TRIPOS>MOLECULE
 ZINC000836674875      none
   47    49    -1     0     0



@<TRIPOS>ATOM
      1 C1        -40.5685   -39.4916    -0.7288 C.3        1  LIG1  -0.1500
      2 C2        -40.9579   -40.9492    -0.9839 C.3        1  LIG1   0.0600
      3 O1        -42.3588   -41.1406    -0.6540 O.3        1  LIG1  -0.3300
      4 C3        -42.6443   -41.4984     0.6079 C.2        1  LIG1   0.4800
      5 O2        -41.7530   -41.6467     1.4100 O.2        1  LIG1  -0.5200
      6 C4        -44.0764   -41.7153     1.0241 C.3        1  LIG1   0.0100
      7 H1        -44.7349   -41.5371     0.1740 H          1  LIG1   0.1200
      8 C5        -44.4321   -40.7530     2.1594 C.3        1  LIG1  -0.1000
      9 C6        -45.8037   -41.1241     2.7307 C.3        1  LIG1  -0.1100
     10 C7        -45.6844   -42.4480     3.4937 C.3        1  LIG1  -0.0300
     11 C8        -44.9688   -43.4472     2.6158 C.2        1  LIG1  -0.3200
     12 C9        -44.2537   -43.1440     1.5162 C.2        1  LIG1   0.0900
     13 N1        -43.7267   -44.2093     0.9242 N.2        1  LIG1  -0.5400
     14 C10       -43.9546   -45.3653     1.4553 C.2        1  LIG1   0.3100
     15 N2        -43.4790   -46.5754     0.9636 N.am       1  LIG1  -0.6200
     16 C11       -42.7181   -46.5986    -0.1487 C.2        1  LIG1   0.5900
     17 O3        -42.4477   -45.5610    -0.7219 O.2        1  LIG1  -0.6600
     18 N3        -42.2570   -47.7717    -0.6253 N.2        1  LIG1  -0.5900
     19 O4        -41.9930   -48.8423     0.2633 O.3        1  LIG1  -0.2200
     20 C12       -40.6582   -48.8587     0.7733 C.3        1  LIG1   0.2800
     21 H2        -40.3418   -47.8397     0.9964 H          1  LIG1   0.0500
     22 C13       -39.7197   -49.4672    -0.2720 C.3        1  LIG1  -0.1400
     23 C14       -38.3024   -49.5366     0.3045 C.3        1  LIG1  -0.1200
     24 C15       -38.3305   -50.3483     1.6033 C.3        1  LIG1  -0.1600
     25 C16       -39.3226   -49.7056     2.5761 C.3        1  LIG1   0.0700
     26 O5        -40.6135   -49.6437     1.9665 O.3        1  LIG1  -0.4000
     27 S1        -44.9292   -45.1902     2.8483 S.3        1  LIG1   0.2500
     28 H3        -39.5169   -39.3478    -0.9765 H          1  LIG1   0.0700
     29 H4        -41.1808   -38.8379    -1.3500 H          1  LIG1   0.0600
     30 H5        -40.7304   -39.2508     0.3218 H          1  LIG1   0.0700
     31 H6        -40.7959   -41.1899    -2.0346 H          1  LIG1   0.0700
     32 H7        -40.3456   -41.6028    -0.3627 H          1  LIG1   0.0600
     33 H8        -43.6799   -40.8238     2.9451 H          1  LIG1   0.0800
     34 H9        -44.4621   -39.7333     1.7755 H          1  LIG1   0.0800
     35 H10       -46.1401   -40.3408     3.4099 H          1  LIG1   0.0700
     36 H11       -46.5200   -41.2356     1.9166 H          1  LIG1   0.0700
     37 H12       -45.1149   -42.2921     4.4100 H          1  LIG1   0.0700
     38 H13       -46.6792   -42.8211     3.7370 H          1  LIG1   0.0700
     39 H14       -43.6948   -47.4032     1.4209 H          1  LIG1   0.4100
     40 H15       -40.0592   -50.4714    -0.5257 H          1  LIG1   0.0700
     41 H16       -39.7188   -48.8451    -1.1670 H          1  LIG1   0.0700
     42 H17       -37.6398   -50.0203    -0.4134 H          1  LIG1   0.0700
     43 H18       -37.9434   -48.5286     0.5122 H          1  LIG1   0.0600
     44 H19       -38.6420   -51.3703     1.3877 H          1  LIG1   0.0700
     45 H20       -37.3359   -50.3563     2.0496 H          1  LIG1   0.0700
     46 H21       -39.3785   -50.3032     3.4860 H          1  LIG1   0.0800
     47 H22       -38.9886   -48.6979     2.8230 H          1  LIG1   0.0400
@<TRIPOS>BOND
     1    1    2 1
     2    1   28 1
     3    1   29 1
     4    1   30 1
     5    2    3 1
     6    2   31 1
     7    2   32 1
     8    3    4 1
     9    4    5 2
    10    4    6 1
    11    6    7 1
    12    6   12 1
    13    6    8 1
    14    8    9 1
    15    8   33 1
    16    8   34 1
    17    9   10 1
    18    9   35 1
    19    9   36 1
    20   10   11 1
    21   10   37 1
    22   10   38 1
    23   11   27 1
    24   11   12 2
    25   12   13 1
    26   13   14 2
    27   14   15 1
    28   14   27 1
    29   15   16 am
    30   15   39 1
    31   16   17 2
    32   16   18 1
    33   18   19 1
    34   19   20 1
    35   20   21 1
    36   20   26 1
    37   20   22 1
    38   22   23 1
    39   22   40 1
    40   22   41 1
    41   23   24 1
    42   23   42 1
    43   23   43 1
    44   24   25 1
    45   24   44 1
    46   24   45 1
    47   25   26 1
    48   25   46 1
    49   25   47 1
##########                 Name:     ZINC001131170402
##########          Protonation:                 none
##########               SMILES:   CC1=C(C(=O)N(C)C2=N[N-]N=N2)C=NN1C1=CC=C(Cl)C=C1
##########            Long Name:   NO_LONG_NAME
##########          FlexRecCode: 1
##########               Number:                22060
##########   Ligand Source File: /bks/ex2/3D/DD/ADMM/DDADMM.xat.db2.gz
##########                 Rank:                    1
##########               Setnum:                    1
##########             Matchnum:                    1
##########                Cloud:                    1
##########        Electrostatic:           -61.785259
##########                 Gist:             0.000000
##########        Van der Waals:           -29.663303
##########  Ligand Polar Desolv:            30.844858
########## Ligand Apolar Desolv:            -5.333174
##########      Internal Energy:             0.000000
##########      Receptor Energy:             0.000000
########## Receptor Desolvation:             0.000000
########## Receptor Hydrophobic:             0.000000
##########         Total Energy:           -65.936874
##########        Ligand Charge:            -1.000000
##########            Arbitrary:    +999.9990
##########        Ligand Energy:             0.000000

@<TRIPOS>MOLECULE
 ZINC001131170402      none
   33    35    -1     0     0



@<TRIPOS>ATOM
      1 C1        -41.7500   -41.4681     0.1093 C.3        1  LIG1  -0.1100
      2 C2        -42.8219   -41.9316     1.0617 C.2        1  LIG1   0.1500
      3 C3        -43.4612   -43.1553     1.0406 C.2        1  LIG1  -0.2600
      4 C4        -43.2228   -44.2505     0.0834 C.2        1  LIG1   0.5800
      5 O1        -42.9920   -43.9984    -1.0837 O.2        1  LIG1  -0.4900
      6 N1        -43.2607   -45.5312     0.5015 N.am       1  LIG1  -0.5000
      7 C5        -43.6375   -45.8397     1.8831 C.3        1  LIG1   0.0900
      8 C6        -42.9401   -46.5662    -0.3843 C.2        1  LIG1   0.2800
      9 N2        -42.5782   -46.4373    -1.6527 N.2        1  LIG1  -0.3600
     10 N3        -42.3703   -47.6205    -2.1208 N.2        1  LIG1  -0.1900
     11 N4        -42.5891   -48.4840    -1.1910 N.2        1  LIG1  -0.1900
     12 N5        -42.9342   -47.8637    -0.1146 N.2        1  LIG1  -0.4000
     13 C7        -44.3866   -43.1614     2.1088 C.2        1  LIG1   0.0900
     14 N6        -44.3016   -42.0141     2.7244 N.2        1  LIG1  -0.2900
     15 N7        -43.3283   -41.2316     2.0931 N.pl3      1  LIG1  -0.3200
     16 C8        -42.9508   -39.9344     2.4668 C.ar       1  LIG1   0.1600
     17 C9        -41.6303   -39.5277     2.3298 C.ar       1  LIG1  -0.1200
     18 C10       -41.2609   -38.2491     2.6987 C.ar       1  LIG1  -0.0900
     19 C11       -42.2055   -37.3737     3.2051 C.ar       1  LIG1  -0.0400
     20 Cl1       -41.7379   -35.7673     3.6685 Cl         1  LIG1  -0.0600
     21 C12       -43.5223   -37.7764     3.3422 C.ar       1  LIG1  -0.0900
     22 C13       -43.8979   -39.0521     2.9694 C.ar       1  LIG1  -0.1000
     23 H1        -40.7715   -41.7483     0.4994 H          1  LIG1   0.0900
     24 H2        -41.9011   -41.9361    -0.8634 H          1  LIG1   0.1100
     25 H3        -41.8020   -40.3845     0.0032 H          1  LIG1   0.0800
     26 H4        -44.7236   -45.8887     1.9613 H          1  LIG1   0.0600
     27 H5        -43.2088   -46.7997     2.1709 H          1  LIG1   0.0900
     28 H6        -43.2604   -45.0603     2.5454 H          1  LIG1   0.0700
     29 H7        -45.0488   -43.9737     2.3697 H          1  LIG1   0.2000
     30 H8        -40.8927   -40.2108     1.9353 H          1  LIG1   0.1500
     31 H9        -40.2339   -37.9324     2.5923 H          1  LIG1   0.1500
     32 H10       -44.2577   -37.0914     3.7376 H          1  LIG1   0.1400
     33 H11       -44.9257   -39.3660     3.0765 H          1  LIG1   0.1500
@<TRIPOS>BOND
     1    1    2 1
     2    1   23 1
     3    1   24 1
     4    1   25 1
     5    2   15 1
     6    2    3 2
     7    3    4 1
     8    3   13 1
     9    4    5 2
    10    4    6 am
    11    6    7 1
    12    6    8 1
    13    7   26 1
    14    7   27 1
    15    7   28 1
    16    8   12 1
    17    8    9 2
    18    9   10 1
    19   10   11 1
    20   11   12 2
    21   13   14 2
    22   13   29 1
    23   14   15 1
    24   15   16 1
    25   16   22 ar
    26   16   17 ar
    27   17   18 ar
    28   17   30 1
    29   18   19 ar
    30   18   31 1
    31   19   20 1
    32   19   21 ar
    33   21   22 ar
    34   21   32 1
    35   22   33 1
##########                 Name:     ZINC000882762373
##########          Protonation:                 none
##########               SMILES:   CC(=O)N1C2=CC=C(S(=O)(=O)[N-]C3=C(Cl)N(C)N=C3)C=C2C[C@@H]1C
##########            Long Name:   NO_LONG_NAME
##########          FlexRecCode: 1
##########               Number:                50690
##########   Ligand Source File: /bks/ex4/3D/FE/ADRM/FEADRM.xbe.db2.gz
##########                 Rank:                    1
##########               Setnum:                   36
##########             Matchnum:                    1
##########                Cloud:                    1
##########        Electrostatic:           -69.908028
##########                 Gist:             0.000000
##########        Van der Waals:           -25.996346
##########  Ligand Polar Desolv:            31.389254
########## Ligand Apolar Desolv:            -2.634163
##########      Internal Energy:             0.000000
##########      Receptor Energy:             0.000000
########## Receptor Desolvation:             0.000000
########## Receptor Hydrophobic:             0.000000
##########         Total Energy:           -67.149284
##########        Ligand Charge:            -1.000000
##########            Arbitrary:    +999.9990
##########        Ligand Energy:             0.000000

@<TRIPOS>MOLECULE
 ZINC000414640157      none
   42    44    -1     0     0



@<TRIPOS>ATOM
      1 C1        -42.8466   -38.3048     2.1743 C.3        1  LIG1  -0.1600
      2 C2        -44.0136   -38.9012     2.9639 C.3        1  LIG1   0.2400
      3 H1        -43.6478   -39.2924     3.9132 H          1  LIG1   0.1200
      4 N1        -44.6222   -39.9866     2.1906 N.am       1  LIG1  -0.7500
      5 C3        -43.8853   -41.0588     1.8388 C.2        1  LIG1   0.7100
      6 O1        -42.7154   -41.1254     2.1631 O.2        1  LIG1  -0.5900
      7 N2        -44.4451   -42.0572     1.1272 N.am       1  LIG1  -0.6200
      8 C4        -45.8766   -42.3603     1.2608 C.3        1  LIG1   0.1100
      9 C5        -46.0368   -43.8470     1.5939 C.3        1  LIG1  -0.1300
     10 C6        -45.3133   -44.6834     0.5361 C.3        1  LIG1  -0.0900
     11 C7        -43.8211   -44.3439     0.5478 C.3        1  LIG1  -0.1700
     12 H2        -43.4109   -44.5409     1.5383 H          1  LIG1   0.0700
     13 C8        -43.1043   -45.1918    -0.4712 C.2        1  LIG1   0.5000
     14 O2        -42.2150   -45.9476    -0.1184 O.co2      1  LIG1  -0.7000
     15 O3        -43.4139   -45.1222    -1.6484 O.co2      1  LIG1  -0.7000
     16 C9        -43.6369   -42.8592     0.1987 C.3        1  LIG1   0.1500
     17 C10       -45.0426   -37.8317     3.2243 C.2        1  LIG1   0.0400
     18 C11       -44.8171   -36.6995     3.9048 C.2        1  LIG1  -0.1900
     19 C12       -46.0878   -35.9647     3.9094 C.ar       1  LIG1  -0.1000
     20 C13       -46.5062   -34.7446     4.4389 C.ar       1  LIG1  -0.0800
     21 C14       -47.7988   -34.3351     4.2613 C.ar       1  LIG1  -0.1100
     22 C15       -48.6960   -35.1256     3.5586 C.ar       1  LIG1  -0.1300
     23 C16       -48.3008   -36.3372     3.0272 C.ar       1  LIG1   0.1200
     24 F1        -49.1839   -37.0984     2.3446 F          1  LIG1  -0.1300
     25 C17       -46.9900   -36.7709     3.1963 C.ar       1  LIG1   0.0200
     26 O4        -46.3185   -37.8722     2.8027 O.3        1  LIG1  -0.1800
     27 H3        -43.2124   -37.9136     1.2251 H          1  LIG1   0.0600
     28 H4        -42.3937   -37.4974     2.7497 H          1  LIG1   0.0700
     29 H5        -42.1022   -39.0785     1.9860 H          1  LIG1   0.0800
     30 H6        -45.5555   -39.9336     1.9319 H          1  LIG1   0.4000
     31 H7        -46.3044   -41.7581     2.0624 H          1  LIG1   0.0700
     32 H8        -46.3860   -42.1389     0.3230 H          1  LIG1   0.0700
     33 H9        -45.6058   -44.0486     2.5745 H          1  LIG1   0.0600
     34 H10       -47.0956   -44.1061     1.6011 H          1  LIG1   0.0700
     35 H11       -45.4465   -45.7424     0.7570 H          1  LIG1   0.0700
     36 H12       -45.7281   -44.4629    -0.4474 H          1  LIG1   0.0600
     37 H13       -43.9636   -42.6814    -0.8258 H          1  LIG1   0.0600
     38 H14       -42.5864   -42.5872     0.3019 H          1  LIG1   0.1000
     39 H15       -43.8874   -36.3900     4.3587 H          1  LIG1   0.1700
     40 H16       -45.8120   -34.1253     4.9875 H          1  LIG1   0.1400
     41 H17       -48.1233   -33.3900     4.6712 H          1  LIG1   0.1400
     42 H18       -49.7142   -34.7904     3.4260 H          1  LIG1   0.1500
@<TRIPOS>BOND
     1    1    2 1
     2    1   27 1
     3    1   28 1
     4    1   29 1
     5    2    3 1
     6    2    4 1
     7    2   17 1
     8    4    5 am
     9    4   30 1
    10    5    6 2
    11    5    7 am
    12    7   16 1
    13    7    8 1
    14    8    9 1
    15    8   31 1
    16    8   32 1
    17    9   10 1
    18    9   33 1
    19    9   34 1
    20   10   11 1
    21   10   35 1
    22   10   36 1
    23   11   12 1
    24   11   13 1
    25   11   16 1
    26   13   14 2
    27   13   15 1
    28   16   37 1
    29   16   38 1
    30   17   26 1
    31   17   18 2
    32   18   19 1
    33   18   39 1
    34   19   25 ar
    35   19   20 ar
    36   20   21 ar
    37   20   40 1
    38   21   22 ar
    39   21   41 1
    40   22   23 ar
    41   22   42 1
    42   23   24 1
    43   23   25 ar
    44   25   26 1
##########                 Name:     ZINC000736344181
##########          Protonation:                 none
##########               SMILES:   CC(C)(OC1=CC=C(F)C=C1)C(=O)N1C[C@@H](CC(=O)[O-])C2=CC=CC=C21
##########            Long Name:   NO_LONG_NAME
##########          FlexRecCode: 1
##########               Number:                39838
##########   Ligand Source File: /bks/ex4/3D/FH/ADRM/FHADRM.xao.db2.gz
##########                 Rank:                    1
##########               Setnum:                  176
##########             Matchnum:                    1
##########                Cloud:                    1
##########        Electrostatic:           -64.221512
##########                 Gist:             0.000000
##########        Van der Waals:           -26.999420
##########  Ligand Polar Desolv:            30.312840
########## Ligand Apolar Desolv:            -8.420354
##########      Internal Energy:             0.000000
##########      Receptor Energy:             0.000000
########## Receptor Desolvation:             0.000000
########## Receptor Hydrophobic:             0.000000
##########         Total Energy:           -69.328445
##########        Ligand Charge:            -1.000000
##########            Arbitrary:    +999.9990
##########        Ligand Energy:             0.000000

@<TRIPOS>MOLECULE
 ZINC000736344181      none
   45    47    -1     0     0



@<TRIPOS>ATOM
      1 C1        -40.3490   -41.9375     0.4227 C.3        1  LIG1  -0.2100
      2 C2        -41.6143   -41.0990     0.2309 C.3        1  LIG1   0.1100
      3 C3        -41.2629   -39.6137     0.3371 C.3        1  LIG1  -0.1500
      4 O1        -42.1717   -41.3656    -1.0575 O.3        1  LIG1  -0.2800
      5 C4        -41.7477   -40.5855    -2.0869 C.ar       1  LIG1   0.1300
      6 C5        -40.6434   -40.9645    -2.8358 C.ar       1  LIG1  -0.1600
      7 C6        -40.2134   -40.1707    -3.8817 C.ar       1  LIG1  -0.1200
      8 C7        -40.8840   -38.9973    -4.1820 C.ar       1  LIG1   0.0600
      9 F1        -40.4623   -38.2218    -5.2047 F          1  LIG1  -0.1400
     10 C8        -41.9868   -38.6181    -3.4357 C.ar       1  LIG1  -0.1200
     11 C9        -42.4222   -39.4128    -2.3930 C.ar       1  LIG1  -0.1200
     12 C10       -42.6189   -41.4550     1.2963 C.2        1  LIG1   0.5000
     13 O2        -42.6245   -40.8538     2.3496 O.2        1  LIG1  -0.5100
     14 N1        -43.5111   -42.4414     1.0787 N.am       1  LIG1  -0.5400
     15 C11       -43.2792   -43.6111     0.2271 C.3        1  LIG1   0.1000
     16 C12       -44.5780   -44.4301     0.3044 C.3        1  LIG1  -0.0300
     17 H1        -45.0299   -44.5201    -0.6834 H          1  LIG1   0.1000
     18 C13       -44.3010   -45.8156     0.8915 C.3        1  LIG1  -0.1700
     19 C14       -43.3133   -46.5436     0.0165 C.2        1  LIG1   0.4900
     20 O3        -43.6244   -47.6007    -0.5050 O.co2      1  LIG1  -0.7000
     21 O4        -42.2030   -46.0753    -0.1697 O.co2      1  LIG1  -0.7000
     22 C15       -45.4757   -43.6343     1.2248 C.ar       1  LIG1  -0.1100
     23 C16       -46.7630   -43.8744     1.6649 C.ar       1  LIG1  -0.0800
     24 C17       -47.3830   -42.9807     2.5186 C.ar       1  LIG1  -0.1400
     25 C18       -46.7111   -41.8452     2.9317 C.ar       1  LIG1  -0.1000
     26 C19       -45.4260   -41.6018     2.4954 C.ar       1  LIG1  -0.1300
     27 C20       -44.7916   -42.5016     1.6373 C.ar       1  LIG1   0.1400
     28 H2        -40.5992   -42.9957     0.3470 H          1  LIG1   0.1000
     29 H3        -39.6223   -41.6800    -0.3478 H          1  LIG1   0.0800
     30 H4        -39.9239   -41.7340     1.4055 H          1  LIG1   0.0900
     31 H5        -42.1644   -39.0163     0.2006 H          1  LIG1   0.0900
     32 H6        -40.8377   -39.4102     1.3199 H          1  LIG1   0.0700
     33 H7        -40.5362   -39.3562    -0.4335 H          1  LIG1   0.1000
     34 H8        -40.1196   -41.8794    -2.6012 H          1  LIG1   0.1400
     35 H9        -39.3535   -40.4656    -4.4648 H          1  LIG1   0.1300
     36 H10       -42.5092   -37.7028    -3.6713 H          1  LIG1   0.1400
     37 H11       -43.2825   -39.1168    -1.8109 H          1  LIG1   0.1400
     38 H12       -43.0892   -43.2994    -0.7999 H          1  LIG1   0.1000
     39 H13       -42.4408   -44.1950     0.6069 H          1  LIG1   0.1000
     40 H14       -43.8883   -45.7092     1.8946 H          1  LIG1   0.0600
     41 H15       -45.2307   -46.3824     0.9393 H          1  LIG1   0.0700
     42 H16       -47.2864   -44.7618     1.3411 H          1  LIG1   0.1200
     43 H17       -48.3897   -43.1690     2.8614 H          1  LIG1   0.1200
     44 H18       -47.1946   -41.1464     3.5982 H          1  LIG1   0.1200
     45 H19       -44.9067   -40.7130     2.8219 H          1  LIG1   0.1300
@<TRIPOS>BOND
     1    1    2 1
     2    1   28 1
     3    1   29 1
     4    1   30 1
     5    2    3 1
     6    2    4 1
     7    2   12 1
     8    3   31 1
     9    3   32 1
    10    3   33 1
    11    4    5 1
    12    5   11 ar
    13    5    6 ar
    14    6    7 ar
    15    6   34 1
    16    7    8 ar
    17    7   35 1
    18    8    9 1
    19    8   10 ar
    20   10   11 ar
    21   10   36 1
    22   11   37 1
    23   12   13 2
    24   12   14 am
    25   14   27 1
    26   14   15 1
    27   15   16 1
    28   15   38 1
    29   15   39 1
    30   16   17 1
    31   16   18 1
    32   16   22 1
    33   18   19 1
    34   18   40 1
    35   18   41 1
    36   19   20 2
    37   19   21 1
    38   22   27 ar
    39   22   23 ar
    40   23   24 ar
    41   23   42 1
    42   24   25 ar
    43   24   43 1
    44   25   26 ar
    45   25   44 1
    46   26   27 ar
    47   26   45 1
##########                 Name:     ZINC001600629592
##########          Protonation:                 none
##########               SMILES:   CC1=CN=CC([C@H]2CCCN2C2=NC=CC(C(=O)[O-])=C2[N+](=O)[O-])=C1
##########            Long Name:   NO_LONG_NAME
##########          FlexRecCode: 1
##########               Number:                20369
##########   Ligand Source File: /bks/ex1/3D/EF/BDRM/EFBDRM.xaa.db2.gz
##########                 Rank:                    1
##########               Setnum:                    6
##########             Matchnum:                    1
##########                Cloud:                    1
##########        Electrostatic:           -64.441895
##########                 Gist:             0.000000
##########        Van der Waals:           -28.950417
##########  Ligand Polar Desolv:            33.673954
########## Ligand Apolar Desolv:            -6.133872
##########      Internal Energy:             0.000000
##########      Receptor Energy:             0.000000
########## Receptor Desolvation:             0.000000
########## Receptor Hydrophobic:             0.000000
##########         Total Energy:           -65.852234
##########        Ligand Charge:            -1.000000
##########            Arbitrary:    +999.9990
##########        Ligand Energy:             0.000000

@<TRIPOS>MOLECULE
 ZINC001598927676      none
   37    38    -1     0     0



@<TRIPOS>ATOM
      1 C1        -48.1333   -34.7341     4.2334 C.3        1  LIG1   0.0400
      2 O1        -47.2869   -35.8675     3.9059 O.3        1  LIG1  -0.3400
      3 C2        -45.9905   -35.6075     3.6425 C.2        1  LIG1   0.5500
      4 O2        -45.5790   -34.4647     3.6853 O.2        1  LIG1  -0.4800
      5 C3        -45.0737   -36.7074     3.3030 C.2        1  LIG1  -0.0200
      6 C4        -43.7424   -36.5805     3.0219 C.2        1  LIG1  -0.1200
      7 C5        -43.2575   -37.8669     2.7566 C.2        1  LIG1  -0.0900
      8 C6        -41.8411   -38.2352     2.3965 C.3        1  LIG1  -0.1000
      9 C7        -44.3131   -38.7249     2.8869 C.2        1  LIG1  -0.0200
     10 C8        -44.2653   -40.1835     2.6981 C.2        1  LIG1   0.5400
     11 O3        -43.2425   -40.7943     2.9385 O.2        1  LIG1  -0.4500
     12 O4        -45.3561   -40.8421     2.2582 O.3        1  LIG1  -0.2700
     13 C9        -45.2443   -42.1886     2.1055 C.ar       1  LIG1   0.0400
     14 C10       -45.5492   -43.0340     3.1626 C.ar       1  LIG1  -0.0900
     15 C11       -45.4359   -44.4013     3.0086 C.ar       1  LIG1  -0.1000
     16 C12       -45.0165   -44.9307     1.7943 C.ar       1  LIG1  -0.0800
     17 S1        -44.8722   -46.6756     1.5961 S.3        1  LIG1  -0.0400
     18 C13       -43.1183   -46.8962     1.1889 C.3        1  LIG1  -0.1800
     19 C14       -42.9368   -46.8256    -0.3054 C.2        1  LIG1   0.5100
     20 O5        -42.2173   -45.9704    -0.7924 O.co2      1  LIG1  -0.6700
     21 O6        -43.5096   -47.6239    -1.0275 O.co2      1  LIG1  -0.6800
     22 C15       -44.7115   -44.0832     0.7362 C.ar       1  LIG1  -0.1300
     23 C16       -44.8308   -42.7166     0.8907 C.ar       1  LIG1  -0.0900
     24 O7        -45.4023   -38.0097     3.2222 O.3        1  LIG1  -0.1200
     25 H1        -49.1489   -35.0816     4.4227 H          1  LIG1   0.0700
     26 H2        -47.7472   -34.2377     5.1239 H          1  LIG1   0.0700
     27 H3        -48.1389   -34.0320     3.3998 H          1  LIG1   0.1100
     28 H4        -43.1730   -35.6630     3.0072 H          1  LIG1   0.1800
     29 H5        -41.7722   -39.3130     2.2493 H          1  LIG1   0.0800
     30 H6        -41.5553   -37.7238     1.4773 H          1  LIG1   0.0900
     31 H7        -41.1716   -37.9349     3.2025 H          1  LIG1   0.0800
     32 H8        -45.8748   -42.6223     4.1064 H          1  LIG1   0.1300
     33 H9        -45.6730   -45.0591     3.8317 H          1  LIG1   0.1400
     34 H10       -42.5331   -46.1087     1.6635 H          1  LIG1   0.0900
     35 H11       -42.7808   -47.8676     1.5503 H          1  LIG1   0.0900
     36 H12       -44.3851   -44.4937    -0.2078 H          1  LIG1   0.1400
     37 H13       -44.5941   -42.0577     0.0683 H          1  LIG1   0.1300
@<TRIPOS>BOND
     1    1    2 1
     2    1   25 1
     3    1   26 1
     4    1   27 1
     5    2    3 1
     6    3    4 2
     7    3    5 1
     8    5   24 1
     9    5    6 2
    10    6    7 1
    11    6   28 1
    12    7    8 1
    13    7    9 2
    14    8   29 1
    15    8   30 1
    16    8   31 1
    17    9   10 1
    18    9   24 1
    19   10   11 2
    20   10   12 1
    21   12   13 1
    22   13   23 ar
    23   13   14 ar
    24   14   15 ar
    25   14   32 1
    26   15   16 ar
    27   15   33 1
    28   16   17 1
    29   16   22 ar
    30   17   18 1
    31   18   19 1
    32   18   34 1
    33   18   35 1
    34   19   20 2
    35   19   21 1
    36   22   23 ar
    37   22   36 1
    38   23   37 1
##########                 Name:     ZINC000225484988
##########          Protonation:                 none
##########               SMILES:   C[C@@H](CN(C(=O)C1=NN(C2=CC=CC=C2)C=C1)C1CC1)C(=O)[O-]
##########            Long Name:   NO_LONG_NAME
##########          FlexRecCode: 1
##########               Number:                 1112
##########   Ligand Source File: /bks/ex1/3D/DE/AARM/DEAARM.xae.db2.gz
##########                 Rank:                    1
##########               Setnum:                   72
##########             Matchnum:                    1
##########                Cloud:                    1
##########        Electrostatic:           -72.658554
##########                 Gist:             0.000000
##########        Van der Waals:           -25.168432
##########  Ligand Polar Desolv:            36.995575
########## Ligand Apolar Desolv:            -7.269297
##########      Internal Energy:             0.000000
##########      Receptor Energy:             0.000000
########## Receptor Desolvation:             0.000000
########## Receptor Hydrophobic:             0.000000
##########         Total Energy:           -68.100708
##########        Ligand Charge:            -1.000000
##########            Arbitrary:    +999.9990
##########        Ligand Energy:             0.000000

@<TRIPOS>MOLECULE
 ZINC000225484988      none
   41    43    -1     0     0



@<TRIPOS>ATOM
      1 C1        -45.5696   -44.7506    -0.1448 C.3        1  LIG1  -0.1200
      2 C2        -44.0851   -44.5384     0.1588 C.3        1  LIG1  -0.1600
      3 H1        -43.7874   -43.5407    -0.1638 H          1  LIG1   0.0500
      4 C3        -43.8469   -44.6801     1.6634 C.3        1  LIG1   0.1100
      5 N1        -44.6400   -43.6781     2.3798 N.am       1  LIG1  -0.5600
      6 C4        -44.4431   -42.3664     2.1411 C.2        1  LIG1   0.6000
      7 O1        -43.3444   -41.9676     1.8062 O.2        1  LIG1  -0.5400
      8 C5        -45.5618   -41.4134     2.2860 C.2        1  LIG1  -0.0200
      9 N2        -45.4692   -40.1430     2.6265 N.2        1  LIG1  -0.2200
     10 N3        -46.6368   -39.6075     2.6574 N.pl3      1  LIG1  -0.2300
     11 C6        -46.8981   -38.2697     2.9817 C.ar       1  LIG1   0.1300
     12 C7        -48.2040   -37.7979     2.9891 C.ar       1  LIG1  -0.1300
     13 C8        -48.4584   -36.4787     3.3092 C.ar       1  LIG1  -0.1100
     14 C9        -47.4142   -35.6279     3.6221 C.ar       1  LIG1  -0.1200
     15 C10       -46.1126   -36.0948     3.6157 C.ar       1  LIG1  -0.0900
     16 C11       -45.8522   -37.4144     3.3020 C.ar       1  LIG1  -0.0700
     17 C12       -47.5808   -40.5275     2.3287 C.2        1  LIG1  -0.0200
     18 C13       -46.9343   -41.6903     2.0795 C.2        1  LIG1  -0.1700
     19 C14       -45.6471   -44.1019     3.3556 C.3        1  LIG1   0.0700
     20 C15       -45.2086   -45.0870     4.4410 C.3        1  LIG1  -0.1900
     21 C16       -45.4774   -43.6240     4.7992 C.3        1  LIG1  -0.1900
     22 C17       -43.2694   -45.5691    -0.5783 C.2        1  LIG1   0.5000
     23 O2        -42.2113   -45.9562    -0.1123 O.co2      1  LIG1  -0.7000
     24 O3        -43.6674   -46.0157    -1.6406 O.co2      1  LIG1  -0.6900
     25 H2        -45.8675   -45.7483     0.1778 H          1  LIG1   0.0300
     26 H3        -46.1598   -44.0053     0.3883 H          1  LIG1   0.0300
     27 H4        -45.7394   -44.6497    -1.2169 H          1  LIG1   0.0700
     28 H5        -44.1447   -45.6777     1.9860 H          1  LIG1   0.1200
     29 H6        -42.7894   -44.5289     1.8797 H          1  LIG1   0.0700
     30 H7        -49.0200   -38.4618     2.7444 H          1  LIG1   0.1300
     31 H8        -49.4739   -36.1112     3.3146 H          1  LIG1   0.1300
     32 H9        -47.6156   -34.5967     3.8717 H          1  LIG1   0.1300
     33 H10       -45.2991   -35.4277     3.8602 H          1  LIG1   0.1300
     34 H11       -44.8354   -37.7784     3.2975 H          1  LIG1   0.1500
     35 H12       -48.6465   -40.3614     2.2732 H          1  LIG1   0.1800
     36 H13       -47.3742   -42.6334     1.7903 H          1  LIG1   0.1600
     37 H14       -46.6634   -44.1945     2.9723 H          1  LIG1   0.1300
     38 H15       -45.9361   -45.8280     4.7720 H          1  LIG1   0.0900
     39 H16       -44.1707   -45.4197     4.4291 H          1  LIG1   0.1300
     40 H17       -44.6163   -42.9942     5.0228 H          1  LIG1   0.1000
     41 H18       -46.3820   -43.4025     5.3656 H          1  LIG1   0.0900
@<TRIPOS>BOND
     1    1    2 1
     2    1   25 1
     3    1   26 1
     4    1   27 1
     5    2    3 1
     6    2    4 1
     7    2   22 1
     8    4    5 1
     9    4   28 1
    10    4   29 1
    11    5    6 am
    12    5   19 1
    13    6    7 2
    14    6    8 1
    15    8   18 1
    16    8    9 2
    17    9   10 1
    18   10   11 1
    19   10   17 1
    20   11   16 ar
    21   11   12 ar
    22   12   13 ar
    23   12   30 1
    24   13   14 ar
    25   13   31 1
    26   14   15 ar
    27   14   32 1
    28   15   16 ar
    29   15   33 1
    30   16   34 1
    31   17   18 2
    32   17   35 1
    33   18   36 1
    34   19   21 1
    35   19   20 1
    36   19   37 1
    37   20   21 1
    38   20   38 1
    39   20   39 1
    40   21   40 1
    41   21   41 1
    42   22   23 2
    43   22   24 1
##########                 Name:     ZINC000830023968
##########          Protonation:                 none
##########               SMILES:   CC1=CC(C)=NC(N2N=CC=C2NC(=O)C2=CC=C(NC(=O)[O-])C(C)=C2)=N1
##########            Long Name:   NO_LONG_NAME
##########          FlexRecCode: 1
##########               Number:                63724
##########   Ligand Source File: /bks/ex4/3D/FF/ADRM/FFADRM.xcy.db2.gz
##########                 Rank:                    1
##########               Setnum:                   42
##########             Matchnum:                    1
##########                Cloud:                    1
##########        Electrostatic:           -67.772270
##########                 Gist:             0.000000
##########        Van der Waals:           -31.538757
##########  Ligand Polar Desolv:            36.572853
########## Ligand Apolar Desolv:            -6.455057
##########      Internal Energy:             0.000000
##########      Receptor Energy:             0.000000
########## Receptor Desolvation:             0.000000
########## Receptor Hydrophobic:             0.000000
##########         Total Energy:           -69.193230
##########        Ligand Charge:            -1.000000
##########            Arbitrary:    +999.9990
##########        Ligand Energy:             0.000000

@<TRIPOS>MOLECULE
 ZINC000001657194      none
   29    30    -1     0     0



@<TRIPOS>ATOM
      1 O1        -43.2420   -48.7622    -0.5995 O.2        1  LIG1  -1.0200
      2 S1        -42.3315   -48.1106    -1.4744 S.o2       1  LIG1   2.5900
      3 O2        -42.3403   -48.2951    -2.8834 O.2        1  LIG1  -1.0100
      4 N1        -42.5150   -46.4854    -1.2146 N.2        1  LIG1  -0.9500
      5 N2        -43.0305   -46.0247     0.0040 N.2        1  LIG1  -0.1800
      6 C1        -43.7073   -44.9186     0.0453 C.2        1  LIG1  -0.0200
      7 C2        -44.2499   -44.4336     1.3281 C.ar       1  LIG1   0.0300
      8 C3        -44.0321   -45.1595     2.5011 C.ar       1  LIG1  -0.1100
      9 C4        -44.5418   -44.7003     3.6977 C.ar       1  LIG1  -0.1000
     10 C5        -45.2683   -43.5222     3.7383 C.ar       1  LIG1  -0.0500
     11 Cl1       -45.9060   -42.9519     5.2489 Cl         1  LIG1  -0.0800
     12 C6        -45.4881   -42.7965     2.5795 C.ar       1  LIG1  -0.1000
     13 C7        -44.9797   -43.2420     1.3762 C.ar       1  LIG1  -0.0300
     14 Cl2       -45.2559   -42.3315    -0.0758 Cl         1  LIG1  -0.0300
     15 C8        -40.7150   -48.5472    -0.9255 C.ar       1  LIG1  -0.6000
     16 C9        -39.7444   -48.8973    -1.8446 C.ar       1  LIG1   0.0000
     17 C10       -38.4751   -49.2403    -1.4142 C.ar       1  LIG1  -0.0500
     18 Cl3       -37.2561   -49.6800    -2.5691 Cl         1  LIG1  -0.0400
     19 C11       -38.1774   -49.2321    -0.0621 C.ar       1  LIG1   0.0200
     20 Cl4       -36.5846   -49.6618     0.4787 Cl         1  LIG1  -0.0400
     21 C12       -39.1491   -48.8811     0.8576 C.ar       1  LIG1  -0.1200
     22 C13       -40.4164   -48.5338     0.4257 C.ar       1  LIG1   0.0700
     23 Cl5       -41.6362   -48.0933     1.5797 Cl         1  LIG1  -0.0100
     24 H1        -43.8732   -44.3528    -0.8596 H          1  LIG1   0.1000
     25 H2        -43.4661   -46.0788     2.4712 H          1  LIG1   0.1400
     26 H3        -44.3742   -45.2612     4.6052 H          1  LIG1   0.1300
     27 H4        -46.0556   -41.8784     2.6181 H          1  LIG1   0.1400
     28 H5        -39.9769   -48.9036    -2.8994 H          1  LIG1   0.1700
     29 H6        -38.9174   -48.8747     1.9123 H          1  LIG1   0.1600
@<TRIPOS>BOND
     1    1    2 2
     2    2    3 2
     3    2    4 1
     4    2   15 1
     5    4    5 1
     6    5    6 2
     7    6    7 1
     8    6   24 1
     9    7   13 ar
    10    7    8 ar
    11    8    9 ar
    12    8   25 1
    13    9   10 ar
    14    9   26 1
    15   10   11 1
    16   10   12 ar
    17   12   13 ar
    18   12   27 1
    19   13   14 1
    20   15   22 ar
    21   15   16 ar
    22   16   17 ar
    23   16   28 1
    24   17   18 1
    25   17   19 ar
    26   19   20 1
    27   19   21 ar
    28   21   22 ar
    29   21   29 1
    30   22   23 1
##########                 Name:     ZINC000542504778
##########          Protonation:                 none
##########               SMILES:   NC(=O)C1=CC(C(=O)NC2=CC=C(CC(=O)[O-])C=C2)=NN1C1=CC=CC=C1
##########            Long Name:   NO_LONG_NAME
##########          FlexRecCode: 1
##########               Number:                36791
##########   Ligand Source File: /mnt/nfs/ex3/published/3D/FD/ADRM/FDADRM.xcc.db2.gz
##########                 Rank:                    1
##########               Setnum:                  168
##########             Matchnum:                    1
##########                Cloud:                    1
##########        Electrostatic:           -71.630562
##########                 Gist:             0.000000
##########        Van der Waals:           -31.931580
##########  Ligand Polar Desolv:            37.952637
########## Ligand Apolar Desolv:            -3.870051
##########      Internal Energy:             0.000000
##########      Receptor Energy:             0.000000
########## Receptor Desolvation:             0.000000
########## Receptor Hydrophobic:             0.000000
##########         Total Energy:           -69.479553
##########        Ligand Charge:            -1.000000
##########            Arbitrary:    +999.9990
##########        Ligand Energy:             0.000000

@<TRIPOS>MOLECULE
 ZINC000542504778      none
   42    44    -1     0     0



@<TRIPOS>ATOM
      1 N1        -43.9511   -34.8298     3.1111 N.am       1  LIG1  -0.8300
      2 C1        -44.2606   -35.7943     4.0002 C.2        1  LIG1   0.6000
      3 O1        -44.1262   -35.5892     5.1915 O.2        1  LIG1  -0.5300
      4 C2        -44.7614   -37.0953     3.5296 C.2        1  LIG1  -0.0400
      5 C3        -44.0092   -38.1992     3.2221 C.2        1  LIG1  -0.1200
      6 C4        -44.9338   -39.1854     2.8238 C.2        1  LIG1  -0.0100
      7 C5        -44.6122   -40.5609     2.3931 C.2        1  LIG1   0.6000
      8 O2        -43.6309   -41.1237     2.8388 O.2        1  LIG1  -0.5000
      9 N2        -45.4063   -41.1922     1.5058 N.am       1  LIG1  -0.6500
     10 C6        -45.1017   -42.4947     1.0978 C.ar       1  LIG1   0.1100
     11 C7        -45.4535   -42.9257    -0.1748 C.ar       1  LIG1  -0.1400
     12 C8        -45.1508   -44.2124    -0.5747 C.ar       1  LIG1  -0.1000
     13 C9        -44.4981   -45.0715     0.2903 C.ar       1  LIG1  -0.0300
     14 C10       -44.1689   -46.4747    -0.1498 C.3        1  LIG1  -0.1600
     15 C11       -42.8069   -46.4925    -0.7944 C.2        1  LIG1   0.5000
     16 O3        -42.6983   -46.3088    -1.9949 O.co2      1  LIG1  -0.6900
     17 O4        -41.8137   -46.6907    -0.1158 O.co2      1  LIG1  -0.7000
     18 C12       -44.1464   -44.6456     1.5580 C.ar       1  LIG1  -0.1000
     19 C13       -44.4415   -43.3584     1.9623 C.ar       1  LIG1  -0.1100
     20 N3        -46.1401   -38.6549     2.9062 N.2        1  LIG1  -0.2300
     21 N4        -46.0706   -37.4405     3.3193 N.pl3      1  LIG1  -0.2000
     22 C14       -47.1674   -36.5941     3.5173 C.ar       1  LIG1   0.1100
     23 C15       -48.3155   -36.7518     2.7514 C.ar       1  LIG1  -0.0600
     24 C16       -49.3961   -35.9150     2.9491 C.ar       1  LIG1  -0.1100
     25 C17       -49.3360   -34.9208     3.9085 C.ar       1  LIG1  -0.1000
     26 C18       -48.1944   -34.7605     4.6722 C.ar       1  LIG1  -0.1200
     27 C19       -47.1126   -35.5980     4.4837 C.ar       1  LIG1  -0.0900
     28 H1        -43.6193   -33.9728     3.4212 H          1  LIG1   0.4100
     29 H2        -44.0566   -34.9941     2.1610 H          1  LIG1   0.4100
     30 H3        -42.9345   -38.2931     3.2737 H          1  LIG1   0.1800
     31 H4        -46.1892   -40.7432     1.1503 H          1  LIG1   0.4100
     32 H5        -45.9636   -42.2554    -0.8507 H          1  LIG1   0.1200
     33 H6        -45.4244   -44.5482    -1.5642 H          1  LIG1   0.1200
     34 H7        -44.1697   -47.1367     0.7162 H          1  LIG1   0.0700
     35 H8        -44.9152   -46.8149    -0.8677 H          1  LIG1   0.0700
     36 H9        -43.6371   -45.3191     2.2314 H          1  LIG1   0.1200
     37 H10       -44.1666   -43.0264     2.9525 H          1  LIG1   0.1300
     38 H11       -48.3629   -37.5281     2.0019 H          1  LIG1   0.1300
     39 H12       -50.2888   -36.0370     2.3539 H          1  LIG1   0.1300
     40 H13       -50.1826   -34.2676     4.0612 H          1  LIG1   0.1300
     41 H14       -48.1505   -33.9825     5.4199 H          1  LIG1   0.1300
     42 H15       -46.2214   -35.4726     5.0809 H          1  LIG1   0.1300
@<TRIPOS>BOND
     1    1    2 am
     2    1   28 1
     3    1   29 1
     4    2    3 2
     5    2    4 1
     6    4   21 1
     7    4    5 2
     8    5    6 1
     9    5   30 1
    10    6    7 1
    11    6   20 2
    12    7    8 2
    13    7    9 am
    14    9   10 1
    15    9   31 1
    16   10   19 ar
    17   10   11 ar
    18   11   12 ar
    19   11   32 1
    20   12   13 ar
    21   12   33 1
    22   13   14 1
    23   13   18 ar
    24   14   15 1
    25   14   34 1
    26   14   35 1
    27   15   16 2
    28   15   17 1
    29   18   19 ar
    30   18   36 1
    31   19   37 1
    32   20   21 1
    33   21   22 1
    34   22   27 ar
    35   22   23 ar
    36   23   24 ar
    37   23   38 1
    38   24   25 ar
    39   24   39 1
    40   25   26 ar
    41   25   40 1
    42   26   27 ar
    43   26   41 1
    44   27   42 1
##########                 Name:     ZINC000001742482
##########          Protonation:                 none
##########               SMILES:   O=C(OC1=CC=C2C=C(C3=NC4=CC=CC=C4S3)C(=O)OC2=C1)C1=CC=CC=C1
##########            Long Name:   NO_LONG_NAME
##########          FlexRecCode: 1
##########               Number:                12205
##########   Ligand Source File: /bks/ex7/3D/GK/AARN/GKAARN.xad.db2.gz
##########                 Rank:                    1
##########               Setnum:                  143
##########             Matchnum:                    1
##########                Cloud:                    1
##########        Electrostatic:           -28.287251
##########                 Gist:             0.000000
##########        Van der Waals:           -40.437176
##########  Ligand Polar Desolv:            10.555992
########## Ligand Apolar Desolv:            -8.840721
##########      Internal Energy:             0.000000
##########      Receptor Energy:             0.000000
########## Receptor Desolvation:             0.000000
########## Receptor Hydrophobic:             0.000000
##########         Total Energy:           -67.009155
##########        Ligand Charge:             0.000000
##########            Arbitrary:    +999.9990
##########        Ligand Energy:             0.000000

@<TRIPOS>MOLECULE
 ZINC001594408436      none
   40    42    -1     0     0



@<TRIPOS>ATOM
      1 C1        -47.5227   -42.2969     4.2293 C.3        1  LIG1  -0.1100
      2 C2        -46.4040   -42.0233     3.2572 C.ar       1  LIG1  -0.0500
      3 C3        -45.9547   -40.7298     3.0677 C.ar       1  LIG1  -0.1600
      4 C4        -44.9284   -40.4754     2.1764 C.ar       1  LIG1  -0.0700
      5 C5        -44.3496   -41.5138     1.4732 C.ar       1  LIG1  -0.2200
      6 C6        -44.7988   -42.8130     1.6616 C.ar       1  LIG1   0.1400
      7 O1        -44.2308   -43.8365     0.9712 O.3        1  LIG1  -0.2900
      8 C7        -44.2136   -45.1167     1.6060 C.3        1  LIG1   0.0500
      9 C8        -43.0083   -45.8922     1.1405 C.2        1  LIG1   0.5000
     10 O2        -42.2396   -45.3974     0.3435 O.2        1  LIG1  -0.5000
     11 N1        -42.7847   -47.1358     1.6097 N.am       1  LIG1  -0.6000
     12 C9        -41.6772   -47.8484     1.1819 C.2        1  LIG1   0.0400
     13 C10       -41.4219   -48.1831    -0.1235 C.2        1  LIG1  -0.2000
     14 C11       -42.2750   -47.8326    -1.2006 C.2        1  LIG1   0.5400
     15 O3        -42.1089   -46.7739    -1.7940 O.co2      1  LIG1  -0.7000
     16 O4        -43.1779   -48.5887    -1.5377 O.co2      1  LIG1  -0.6800
     17 C12       -40.1912   -48.9305    -0.2905 C.2        1  LIG1  -0.0200
     18 C13       -39.5569   -49.1399     0.8703 C.2        1  LIG1  -0.3300
     19 C14       -38.2468   -49.8952     0.9800 C.3        1  LIG1   0.1500
     20 O5        -38.0350   -50.6072    -0.2439 O.3        1  LIG1  -0.3800
     21 C15       -38.1700   -49.7980    -1.4157 C.3        1  LIG1   0.0600
     22 C16       -39.6461   -49.4379    -1.6168 C.3        1  LIG1  -0.0800
     23 S1        -40.4415   -48.4231     2.2036 S.3        1  LIG1   0.2400
     24 C17       -45.8246   -43.0662     2.5604 C.ar       1  LIG1  -0.1500
     25 H1        -47.8499   -41.3599     4.6797 H          1  LIG1   0.0700
     26 H2        -48.3579   -42.7576     3.7017 H          1  LIG1   0.0700
     27 H3        -47.1694   -42.9711     5.0095 H          1  LIG1   0.0700
     28 H4        -46.4062   -39.9165     3.6164 H          1  LIG1   0.1200
     29 H5        -44.5793   -39.4640     2.0299 H          1  LIG1   0.1300
     30 H6        -43.5483   -41.3146     0.7770 H          1  LIG1   0.1300
     31 H7        -44.1660   -44.9855     2.6871 H          1  LIG1   0.1000
     32 H8        -45.1202   -45.6634     1.3460 H          1  LIG1   0.1000
     33 H9        -43.3996   -47.5315     2.2470 H          1  LIG1   0.4400
     34 H10       -37.4298   -49.1923     1.1423 H          1  LIG1   0.0600
     35 H11       -38.2970   -50.5992     1.8107 H          1  LIG1   0.1000
     36 H12       -37.5859   -48.8855    -1.2967 H          1  LIG1   0.0500
     37 H13       -37.8090   -50.3508    -2.2830 H          1  LIG1   0.1000
     38 H14       -40.2018   -50.3220    -1.9294 H          1  LIG1   0.0800
     39 H15       -39.7355   -48.6589    -2.3741 H          1  LIG1   0.1000
     40 H16       -46.1760   -44.0766     2.7087 H          1  LIG1   0.1300
@<TRIPOS>BOND
     1    1    2 1
     2    1   25 1
     3    1   26 1
     4    1   27 1
     5    2   24 ar
     6    2    3 ar
     7    3    4 ar
     8    3   28 1
     9    4    5 ar
    10    4   29 1
    11    5    6 ar
    12    5   30 1
    13    6    7 1
    14    6   24 ar
    15    7    8 1
    16    8    9 1
    17    8   31 1
    18    8   32 1
    19    9   10 2
    20    9   11 am
    21   11   12 1
    22   11   33 1
    23   12   23 1
    24   12   13 2
    25   13   14 1
    26   13   17 1
    27   14   15 2
    28   14   16 1
    29   17   22 1
    30   17   18 2
    31   18   19 1
    32   18   23 1
    33   19   20 1
    34   19   34 1
    35   19   35 1
    36   20   21 1
    37   21   22 1
    38   21   36 1
    39   21   37 1
    40   22   38 1
    41   22   39 1
    42   24   40 1
##########                 Name:     ZINC000739642212
##########          Protonation:                 none
##########               SMILES:   O=C([O-])C[C@@H]1CN(C(=O)[C@H]2C[C@@]23CCOC2=CC=CC=C23)C2=CC=CC=C21
##########            Long Name:   NO_LONG_NAME
##########          FlexRecCode: 1
##########               Number:                 5067
##########   Ligand Source File: /bks/ex4/3D/FG/ADRM/FGADRM.xbt.db2.gz
##########                 Rank:                    1
##########               Setnum:                  132
##########             Matchnum:                    1
##########                Cloud:                    1
##########        Electrostatic:           -64.384171
##########                 Gist:             0.000000
##########        Van der Waals:           -26.625496
##########  Ligand Polar Desolv:            32.784081
########## Ligand Apolar Desolv:            -9.141981
##########      Internal Energy:             0.000000
##########      Receptor Energy:             0.000000
########## Receptor Desolvation:             0.000000
########## Receptor Hydrophobic:             0.000000
##########         Total Energy:           -67.367569
##########        Ligand Charge:            -1.000000
##########            Arbitrary:    +999.9990
##########        Ligand Energy:             0.000000

@<TRIPOS>MOLECULE
 ZINC000739642212      none
   47    51    -1     0     0



@<TRIPOS>ATOM
      1 O1        -42.2146   -45.9354    -0.7678 O.co2      1  LIG1  -0.7000
      2 C1        -43.3950   -45.7078    -0.9707 C.2        1  LIG1   0.4900
      3 O2        -43.8525   -45.8172    -2.0956 O.co2      1  LIG1  -0.7000
      4 C2        -44.2902   -45.2972     0.1700 C.3        1  LIG1  -0.1700
      5 C3        -44.8883   -43.9195    -0.1215 C.3        1  LIG1  -0.0300
      6 H1        -45.4738   -43.9468    -1.0404 H          1  LIG1   0.1000
      7 C4        -43.7762   -42.8631    -0.2255 C.3        1  LIG1   0.1200
      8 N1        -44.0579   -41.9018     0.8440 N.am       1  LIG1  -0.5500
      9 C5        -43.3213   -40.8052     1.1110 C.2        1  LIG1   0.5600
     10 O3        -43.2538   -40.3814     2.2454 O.2        1  LIG1  -0.5200
     11 C6        -42.5815   -40.1056     0.0000 C.3        1  LIG1  -0.1700
     12 H2        -43.2019   -39.7257    -0.8117 H          1  LIG1   0.1300
     13 C7        -41.3387   -39.2962     0.3784 C.3        1  LIG1  -0.1300
     14 C8        -41.1925   -40.6261    -0.3589 C.3        1  LIG1  -0.0500
     15 C9        -40.6483   -41.8258     0.4267 C.3        1  LIG1  -0.1100
     16 C10       -39.1829   -42.0229     0.0097 C.3        1  LIG1   0.0600
     17 O4        -39.1280   -42.2793    -1.3928 O.3        1  LIG1  -0.3200
     18 C11       -39.7486   -41.4226    -2.2422 C.ar       1  LIG1   0.1400
     19 C12       -39.3521   -41.3766    -3.5732 C.ar       1  LIG1  -0.1500
     20 C13       -39.9775   -40.5160    -4.4532 C.ar       1  LIG1  -0.0900
     21 C14       -41.0002   -39.6961    -4.0138 C.ar       1  LIG1  -0.1500
     22 C15       -41.3962   -39.7355    -2.6892 C.ar       1  LIG1  -0.0800
     23 C16       -40.7716   -40.5926    -1.8062 C.ar       1  LIG1  -0.1200
     24 C17       -45.2035   -42.2886     1.5465 C.ar       1  LIG1   0.1400
     25 C18       -45.8267   -41.6706     2.6319 C.ar       1  LIG1  -0.1300
     26 C19       -46.9626   -42.2207     3.1871 C.ar       1  LIG1  -0.1100
     27 C20       -47.4932   -43.3889     2.6723 C.ar       1  LIG1  -0.1400
     28 C21       -46.8816   -44.0068     1.5972 C.ar       1  LIG1  -0.0800
     29 C22       -45.7456   -43.4609     1.0367 C.ar       1  LIG1  -0.1200
     30 H3        -45.0932   -46.0257     0.2819 H          1  LIG1   0.0700
     31 H4        -43.7084   -45.2533     1.0908 H          1  LIG1   0.0600
     32 H5        -42.8008   -43.3247    -0.0718 H          1  LIG1   0.0800
     33 H6        -43.8130   -42.3697    -1.1967 H          1  LIG1   0.0900
     34 H7        -41.1413   -38.3841    -0.1847 H          1  LIG1   0.1100
     35 H8        -41.0564   -39.2699     1.4308 H          1  LIG1   0.1100
     36 H9        -40.7050   -41.6246     1.4965 H          1  LIG1   0.1000
     37 H10       -41.2252   -42.7187     0.1858 H          1  LIG1   0.0900
     38 H11       -38.6145   -41.1213     0.2379 H          1  LIG1   0.0600
     39 H12       -38.7602   -42.8688     0.5517 H          1  LIG1   0.1100
     40 H13       -38.5530   -42.0150    -3.9199 H          1  LIG1   0.1300
     41 H14       -39.6669   -40.4829    -5.4870 H          1  LIG1   0.1300
     42 H15       -41.4892   -39.0249    -4.7044 H          1  LIG1   0.1300
     43 H16       -42.1948   -39.0947    -2.3455 H          1  LIG1   0.1300
     44 H17       -45.4171   -40.7579     3.0388 H          1  LIG1   0.1300
     45 H18       -47.4396   -41.7371     4.0268 H          1  LIG1   0.1200
     46 H19       -48.3835   -43.8174     3.1084 H          1  LIG1   0.1200
     47 H20       -47.2946   -44.9196     1.1940 H          1  LIG1   0.1200
@<TRIPOS>BOND
     1    1    2 2
     2    2    3 1
     3    2    4 1
     4    4    5 1
     5    4   30 1
     6    4   31 1
     7    5    6 1
     8    5   29 1
     9    5    7 1
    10    7    8 1
    11    7   32 1
    12    7   33 1
    13    8    9 am
    14    8   24 1
    15    9   10 2
    16    9   11 1
    17   11   12 1
    18   11   14 1
    19   11   13 1
    20   13   14 1
    21   13   34 1
    22   13   35 1
    23   14   23 1
    24   14   15 1
    25   15   16 1
    26   15   36 1
    27   15   37 1
    28   16   17 1
    29   16   38 1
    30   16   39 1
    31   17   18 1
    32   18   23 ar
    33   18   19 ar
    34   19   20 ar
    35   19   40 1
    36   20   21 ar
    37   20   41 1
    38   21   22 ar
    39   21   42 1
    40   22   23 ar
    41   22   43 1
    42   24   29 ar
    43   24   25 ar
    44   25   26 ar
    45   25   44 1
    46   26   27 ar
    47   26   45 1
    48   27   28 ar
    49   27   46 1
    50   28   29 ar
    51   28   47 1
##########                 Name:     ZINC001598352813
##########          Protonation:                 none
##########               SMILES:   CN(C)C1=NC(Cl)=C(C(=O)O[C@H]2C[C@H]3C[C@@H](C(=O)[O-])C[C@H]32)S1
##########            Long Name:   NO_LONG_NAME
##########          FlexRecCode: 1
##########               Number:                46501
##########   Ligand Source File: /bks/ex1/3D/EF/ADRM/EFADRM.xbx.db2.gz
##########                 Rank:                    1
##########               Setnum:                   31
##########             Matchnum:                    1
##########                Cloud:                    1
##########        Electrostatic:           -75.710182
##########                 Gist:             0.000000
##########        Van der Waals:           -23.492189
##########  Ligand Polar Desolv:            35.296116
########## Ligand Apolar Desolv:            -7.133015
##########      Internal Energy:             0.000000
##########      Receptor Energy:             0.000000
########## Receptor Desolvation:             0.000000
########## Receptor Hydrophobic:             0.000000
##########         Total Energy:           -71.039268
##########        Ligand Charge:            -1.000000
##########            Arbitrary:    +999.9990
##########        Ligand Energy:             0.000000

@<TRIPOS>MOLECULE
 ZINC000064368968      none
   34    37     0     0     0



@<TRIPOS>ATOM
      1 O1        -42.5121   -44.5043    -0.8991 O.2        1  LIG1  -0.4800
      2 C1        -43.0172   -44.0500     0.1097 C.2        1  LIG1   0.5600
      3 O2        -42.9524   -42.7807     0.5418 O.3        1  LIG1   0.0000
      4 N1        -43.5593   -42.6468     1.5799 N.2        1  LIG1  -0.3300
      5 C2        -44.0926   -43.7658     1.9688 C.2        1  LIG1   0.2800
      6 C3        -44.9033   -43.9785     3.1896 C.ar       1  LIG1  -0.0300
      7 C4        -44.4800   -44.8839     4.1621 C.ar       1  LIG1  -0.0900
      8 C5        -45.2395   -45.0775     5.2978 C.ar       1  LIG1  -0.1100
      9 C6        -46.4186   -44.3756     5.4727 C.ar       1  LIG1  -0.0900
     10 C7        -46.8438   -43.4760     4.5116 C.ar       1  LIG1  -0.1200
     11 C8        -46.0901   -43.2699     3.3742 C.ar       1  LIG1  -0.0700
     12 N2        -43.7628   -44.7226     1.0193 N.am       1  LIG1  -0.5500
     13 C9        -44.1297   -46.1409     1.0079 C.3        1  LIG1   0.2200
     14 C10       -42.9196   -46.9702     0.6636 C.2        1  LIG1   0.0200
     15 C11       -42.0373   -47.4828     1.5492 C.2        1  LIG1  -0.0500
     16 N3        -41.0940   -48.1657     0.8308 N.pl3      1  LIG1  -0.3600
     17 C12       -39.9841   -48.8700     1.1993 C.2        1  LIG1   0.1000
     18 C13       -39.2043   -49.4604     0.2681 C.2        1  LIG1  -0.1100
     19 Br1       -37.6717   -50.4312     0.8016 Br         1  LIG1   0.0000
     20 C14       -39.5274   -49.3570    -1.0956 C.2        1  LIG1  -0.0800
     21 C15       -40.6308   -48.6583    -1.4755 C.2        1  LIG1  -0.0600
     22 C16       -41.4342   -48.0476    -0.4916 C.2        1  LIG1   0.2300
     23 N4        -42.5437   -47.3258    -0.5671 N.2        1  LIG1  -0.4600
     24 H1        -43.5598   -45.4328     4.0265 H          1  LIG1   0.1300
     25 H2        -44.9129   -45.7787     6.0515 H          1  LIG1   0.1300
     26 H3        -47.0098   -44.5307     6.3631 H          1  LIG1   0.1300
     27 H4        -47.7651   -42.9308     4.6537 H          1  LIG1   0.1300
     28 H5        -46.4229   -42.5671     2.6246 H          1  LIG1   0.1300
     29 H6        -44.4991   -46.4283     1.9924 H          1  LIG1   0.1200
     30 H7        -44.9088   -46.3086     0.2644 H          1  LIG1   0.1200
     31 H8        -42.0703   -47.3738     2.6233 H          1  LIG1   0.1900
     32 H9        -39.7271   -48.9556     2.2446 H          1  LIG1   0.1800
     33 H10       -38.9022   -49.8296    -1.8386 H          1  LIG1   0.1600
     34 H11       -40.8887   -48.5722    -2.5207 H          1  LIG1   0.1600
@<TRIPOS>BOND
     1    1    2 2
     2    2   12 am
     3    2    3 1
     4    3    4 1
     5    4    5 2
     6    5    6 1
     7    5   12 1
     8    6   11 ar
     9    6    7 ar
    10    7    8 ar
    11    7   24 1
    12    8    9 ar
    13    8   25 1
    14    9   10 ar
    15    9   26 1
    16   10   11 ar
    17   10   27 1
    18   11   28 1
    19   12   13 1
    20   13   14 1
    21   13   29 1
    22   13   30 1
    23   14   23 1
    24   14   15 2
    25   15   16 1
    26   15   31 1
    27   16   22 1
    28   16   17 1
    29   17   18 2
    30   17   32 1
    31   18   19 1
    32   18   20 1
    33   20   21 2
    34   20   33 1
    35   21   22 1
    36   21   34 1
    37   22   23 2
##########                 Name:     ZINC000263561357
##########          Protonation:                 none
##########               SMILES:   C[C@@H](CN(C)C1=NC(C(F)(F)F)=CS1)C(=O)[O-]
##########            Long Name:   NO_LONG_NAME
##########          FlexRecCode: 1
##########               Number:                16254
##########   Ligand Source File: /bks/ex3/3D/CE/ADRM/CEADRM.xag.db2.gz
##########                 Rank:                    1
##########               Setnum:                   17
##########             Matchnum:                    1
##########                Cloud:                    1
##########        Electrostatic:           -75.745262
##########                 Gist:             0.000000
##########        Van der Waals:           -14.492392
##########  Ligand Polar Desolv:            29.091551
########## Ligand Apolar Desolv:            -4.839561
##########      Internal Energy:             0.000000
##########      Receptor Energy:             0.000000
########## Receptor Desolvation:             0.000000
########## Receptor Hydrophobic:             0.000000
##########         Total Energy:           -65.985664
##########        Ligand Charge:            -1.000000
##########            Arbitrary:    +999.9990
##########        Ligand Energy:             0.000000

@<TRIPOS>MOLECULE
 ZINC000263561357      none
   27    27    -1     0     0



@<TRIPOS>ATOM
      1 C1        -45.3900   -44.3589    -0.4270 C.3        1  LIG1  -0.1200
      2 C2        -43.8708   -44.3495    -0.2452 C.3        1  LIG1  -0.1800
      3 H1        -43.4776   -43.3716    -0.5231 H          1  LIG1   0.0600
      4 C3        -43.5305   -44.6388     1.2182 C.3        1  LIG1   0.1400
      5 N1        -44.1308   -43.6106     2.0716 N.pl3      1  LIG1  -0.5700
      6 C4        -45.1000   -43.9888     3.1030 C.3        1  LIG1   0.0900
      7 C5        -43.7817   -42.2797     1.9035 C.2        1  LIG1   0.3300
      8 N2        -42.6296   -41.8618     1.4796 N.2        1  LIG1  -0.5400
      9 C6        -42.4690   -40.5542     1.3788 C.2        1  LIG1   0.0200
     10 C7        -41.1854   -39.9258     0.9006 C.3        1  LIG1   0.5500
     11 F1        -40.2573   -40.9296     0.6033 F          1  LIG1  -0.1700
     12 F2        -41.4368   -39.1682    -0.2483 F          1  LIG1  -0.1700
     13 F3        -40.6705   -39.0966     1.9027 F          1  LIG1  -0.1700
     14 C8        -43.5343   -39.8355     1.7341 C.2        1  LIG1  -0.2700
     15 S1        -44.8098   -40.9503     2.2178 S.3        1  LIG1   0.1700
     16 C9        -43.2532   -45.4072    -1.1232 C.2        1  LIG1   0.5000
     17 O1        -42.2176   -45.9534    -0.7831 O.co2      1  LIG1  -0.6900
     18 O2        -43.7893   -45.7168    -2.1736 O.co2      1  LIG1  -0.6900
     19 H2        -45.7831   -45.3369    -0.1491 H          1  LIG1   0.0400
     20 H3        -45.8366   -43.5938     0.2080 H          1  LIG1   0.0500
     21 H4        -45.6324   -44.1529    -1.4695 H          1  LIG1   0.0600
     22 H5        -43.9236   -45.6168     1.4962 H          1  LIG1   0.0900
     23 H6        -42.4482   -44.6322     1.3476 H          1  LIG1   0.0700
     24 H7        -45.4342   -43.0965     3.6324 H          1  LIG1   0.0500
     25 H8        -45.9559   -44.4762     2.6360 H          1  LIG1   0.0800
     26 H9        -44.6311   -44.6753     3.8080 H          1  LIG1   0.0800
     27 H10       -43.6045   -38.7579     1.7232 H          1  LIG1   0.1800
@<TRIPOS>BOND
     1    1    2 1
     2    1   19 1
     3    1   20 1
     4    1   21 1
     5    2    3 1
     6    2    4 1
     7    2   16 1
     8    4    5 1
     9    4   22 1
    10    4   23 1
    11    5    6 1
    12    5    7 1
    13    6   24 1
    14    6   25 1
    15    6   26 1
    16    7   15 1
    17    7    8 2
    18    8    9 1
    19    9   10 1
    20    9   14 2
    21   10   11 1
    22   10   12 1
    23   10   13 1
    24   14   15 1
    25   14   27 1
    26   16   17 2
    27   16   18 1
##########                 Name:     ZINC000424276782
##########          Protonation:                 none
##########               SMILES:   C[C@H]1CCCN(CC2=NN=NN2C2=CC=C(C(F)(F)F)C=C2)[C@H]1C(=O)[O-]
##########            Long Name:   NO_LONG_NAME
##########          FlexRecCode: 1
##########               Number:                16114
##########   Ligand Source File: /bks/ex4/3D/FE/ADRM/FEADRM.xbo.db2.gz
##########                 Rank:                    1
##########               Setnum:                   16
##########             Matchnum:                    1
##########                Cloud:                    1
##########        Electrostatic:           -68.562729
##########                 Gist:             0.000000
##########        Van der Waals:           -19.661083
##########  Ligand Polar Desolv:            25.626827
########## Ligand Apolar Desolv:            -5.211492
##########      Internal Energy:             0.000000
##########      Receptor Energy:             0.000000
########## Receptor Desolvation:             0.000000
########## Receptor Hydrophobic:             0.000000
##########         Total Energy:           -67.808479
##########        Ligand Charge:            -1.000000
##########            Arbitrary:    +999.9990
##########        Ligand Energy:             0.000000

@<TRIPOS>MOLECULE
 ZINC000832952603      none
   46    47    -1     0     0



@<TRIPOS>ATOM
      1 C1        -39.8072   -43.0595    -5.8315 C.3        1  LIG1  -0.1100
      2 C2        -40.1135   -42.2539    -4.5952 C.ar       1  LIG1  -0.1200
      3 C3        -40.3289   -42.8942    -3.3897 C.ar       1  LIG1  -0.0900
      4 C4        -40.6093   -42.1575    -2.2550 C.ar       1  LIG1  -0.2000
      5 C5        -40.6742   -40.7737    -2.3263 C.ar       1  LIG1   0.1300
      6 O1        -40.9493   -40.0469    -1.2116 O.3        1  LIG1  -0.3100
      7 C6        -40.5279   -40.5935     0.0397 C.3        1  LIG1   0.0600
      8 C7        -40.9220   -39.6415     1.1708 C.3        1  LIG1  -0.1100
      9 C8        -42.4413   -39.4604     1.1789 C.3        1  LIG1  -0.1100
     10 C9        -43.1052   -40.7964     1.3925 C.2        1  LIG1   0.4500
     11 O2        -43.3475   -41.1783     2.5129 O.2        1  LIG1  -0.4900
     12 O3        -43.4273   -41.5622     0.3378 O.3        1  LIG1  -0.2900
     13 C10       -44.0237   -42.7551     0.6005 C.ar       1  LIG1   0.0800
     14 C11       -45.4058   -42.8379     0.6814 C.ar       1  LIG1  -0.1400
     15 C12       -46.0096   -44.0517     0.9481 C.ar       1  LIG1  -0.1100
     16 C13       -45.2373   -45.1829     1.1348 C.ar       1  LIG1  -0.1100
     17 C14       -43.8589   -45.1029     1.0552 C.ar       1  LIG1  -0.0100
     18 C15       -43.0200   -46.3381     1.2593 C.3        1  LIG1  -0.1600
     19 C16       -42.8050   -47.0238    -0.0654 C.2        1  LIG1   0.5000
     20 O4        -43.5937   -47.8706    -0.4486 O.co2      1  LIG1  -0.6900
     21 O5        -41.8420   -46.7314    -0.7538 O.co2      1  LIG1  -0.7000
     22 C17       -43.2509   -43.8930     0.7827 C.ar       1  LIG1  -0.1100
     23 C18       -40.4573   -40.1329    -3.5378 C.ar       1  LIG1  -0.1100
     24 C19       -40.5265   -38.6298    -3.6188 C.3        1  LIG1  -0.1100
     25 C20       -40.1722   -40.8737    -4.6682 C.ar       1  LIG1  -0.0800
     26 H1        -39.8031   -44.1205    -5.5816 H          1  LIG1   0.0700
     27 H2        -40.5679   -42.8673    -6.5881 H          1  LIG1   0.0600
     28 H3        -38.8292   -42.7735    -6.2188 H          1  LIG1   0.0600
     29 H4        -40.2787   -43.9717    -3.3348 H          1  LIG1   0.1200
     30 H5        -40.7782   -42.6586    -1.3132 H          1  LIG1   0.1300
     31 H6        -41.0081   -41.5597     0.1942 H          1  LIG1   0.0700
     32 H7        -39.4456   -40.7226     0.0339 H          1  LIG1   0.0700
     33 H8        -40.6008   -40.0584     2.1253 H          1  LIG1   0.0900
     34 H9        -40.4418   -38.6754     1.0163 H          1  LIG1   0.0900
     35 H10       -42.7221   -38.7822     1.9847 H          1  LIG1   0.1100
     36 H11       -42.7626   -39.0435     0.2244 H          1  LIG1   0.1100
     37 H12       -46.0097   -41.9543     0.5363 H          1  LIG1   0.1200
     38 H13       -47.0859   -44.1167     1.0111 H          1  LIG1   0.1200
     39 H14       -45.7110   -46.1308     1.3436 H          1  LIG1   0.1200
     40 H15       -42.0562   -46.0567     1.6835 H          1  LIG1   0.0700
     41 H16       -43.5327   -47.0170     1.9408 H          1  LIG1   0.0700
     42 H17       -42.1745   -43.8311     0.7206 H          1  LIG1   0.1200
     43 H18       -40.3303   -38.3117    -4.6427 H          1  LIG1   0.0700
     44 H19       -41.5193   -38.2951    -3.3182 H          1  LIG1   0.0600
     45 H20       -39.7799   -38.1953    -2.9540 H          1  LIG1   0.0700
     46 H21       -40.0029   -40.3754    -5.6113 H          1  LIG1   0.1300
@<TRIPOS>BOND
     1    1    2 1
     2    1   26 1
     3    1   27 1
     4    1   28 1
     5    2   25 ar
     6    2    3 ar
     7    3    4 ar
     8    3   29 1
     9    4    5 ar
    10    4   30 1
    11    5    6 1
    12    5   23 ar
    13    6    7 1
    14    7    8 1
    15    7   31 1
    16    7   32 1
    17    8    9 1
    18    8   33 1
    19    8   34 1
    20    9   10 1
    21    9   35 1
    22    9   36 1
    23   10   11 2
    24   10   12 1
    25   12   13 1
    26   13   22 ar
    27   13   14 ar
    28   14   15 ar
    29   14   37 1
    30   15   16 ar
    31   15   38 1
    32   16   17 ar
    33   16   39 1
    34   17   18 1
    35   17   22 ar
    36   18   19 1
    37   18   40 1
    38   18   41 1
    39   19   20 2
    40   19   21 1
    41   22   42 1
    42   23   24 1
    43   23   25 ar
    44   24   43 1
    45   24   44 1
    46   24   45 1
    47   25   46 1
##########                 Name:     ZINC000504525343
##########          Protonation:                 none
##########               SMILES:   O=C([O-])CC[C@H](CC1=CC=CC=C1)NS(=O)(=O)C1=CSC2=CC=CC=C21
##########            Long Name:   NO_LONG_NAME
##########          FlexRecCode: 1
##########               Number:                30013
##########   Ligand Source File: /bks/ex7/3D/GH/ADRM/GHADRM.xah.db2.gz
##########                 Rank:                    1
##########               Setnum:                   32
##########             Matchnum:                    1
##########                Cloud:                    1
##########        Electrostatic:           -76.452393
##########                 Gist:             0.000000
##########        Van der Waals:           -24.463430
##########  Ligand Polar Desolv:            38.484188
########## Ligand Apolar Desolv:            -7.072898
##########      Internal Energy:             0.000000
##########      Receptor Energy:             0.000000
########## Receptor Desolvation:             0.000000
########## Receptor Hydrophobic:             0.000000
##########         Total Energy:           -69.504532
##########        Ligand Charge:            -1.000000
##########            Arbitrary:    +999.9990
##########        Ligand Energy:             0.000000

@<TRIPOS>MOLECULE
 ZINC000504525343      none
   44    46    -1     0     0



@<TRIPOS>ATOM
      1 O1        -41.9378   -46.5784    -0.8561 O.co2      1  LIG1  -0.7100
      2 C1        -43.0333   -46.0662    -1.0112 C.2        1  LIG1   0.4900
      3 O2        -43.6472   -46.2428    -2.0498 O.co2      1  LIG1  -0.7100
      4 C2        -43.6313   -45.2201     0.0830 C.3        1  LIG1  -0.1800
      5 C3        -43.8801   -43.8055    -0.4444 C.3        1  LIG1  -0.1100
      6 C4        -44.4871   -42.9465     0.6667 C.3        1  LIG1   0.1600
      7 H1        -44.0001   -43.1796     1.6135 H          1  LIG1   0.0800
      8 C5        -45.9847   -43.2399     0.7776 C.3        1  LIG1  -0.0900
      9 C6        -46.4835   -42.8020     2.1305 C.ar       1  LIG1  -0.0700
     10 C7        -46.4616   -43.6847     3.1941 C.ar       1  LIG1  -0.1200
     11 C8        -46.9192   -43.2832     4.4352 C.ar       1  LIG1  -0.1200
     12 C9        -47.3982   -41.9986     4.6127 C.ar       1  LIG1  -0.1200
     13 C10       -47.4192   -41.1156     3.5493 C.ar       1  LIG1  -0.1100
     14 C11       -46.9577   -41.5159     2.3093 C.ar       1  LIG1  -0.1100
     15 N1        -44.2893   -41.5294     0.3516 N.pl3      1  LIG1  -1.1000
     16 S1        -42.9254   -40.7480     0.8727 S.o2       1  LIG1   2.6900
     17 O3        -43.2494   -39.3653     0.9223 O.2        1  LIG1  -0.9300
     18 O4        -42.4508   -41.4758     1.9970 O.2        1  LIG1  -0.9600
     19 C12       -41.7072   -40.9287    -0.3875 C.2        1  LIG1  -0.6700
     20 C13       -40.6369   -41.6832    -0.2364 C.2        1  LIG1  -0.0600
     21 S2        -39.6250   -41.6522    -1.6675 S.3        1  LIG1   0.1200
     22 C14       -40.7211   -40.5581    -2.5015 C.ar       1  LIG1  -0.1400
     23 C15       -40.6492   -39.9996    -3.7812 C.ar       1  LIG1  -0.0800
     24 C16       -41.6415   -39.1574    -4.2247 C.ar       1  LIG1  -0.1100
     25 C17       -42.7200   -38.8566    -3.4041 C.ar       1  LIG1  -0.1100
     26 C18       -42.8094   -39.3891    -2.1545 C.ar       1  LIG1  -0.0800
     27 C19       -41.8091   -40.2618    -1.6754 C.ar       1  LIG1   0.0000
     28 H2        -44.5753   -45.6584     0.4065 H          1  LIG1   0.0700
     29 H3        -42.9425   -45.1774     0.9267 H          1  LIG1   0.0600
     30 H4        -42.9360   -43.3671    -0.7678 H          1  LIG1   0.0600
     31 H5        -44.5689   -43.8483    -1.2880 H          1  LIG1   0.0800
     32 H6        -46.5201   -42.6960    -0.0006 H          1  LIG1   0.0800
     33 H7        -46.1552   -44.3096     0.6562 H          1  LIG1   0.0900
     34 H8        -46.0874   -44.6883     3.0554 H          1  LIG1   0.1200
     35 H9        -46.9027   -43.9730     5.2660 H          1  LIG1   0.1100
     36 H10       -47.7564   -41.6850     5.5822 H          1  LIG1   0.1100
     37 H11       -47.7938   -40.1123     3.6879 H          1  LIG1   0.1200
     38 H12       -46.9741   -40.8261     1.4785 H          1  LIG1   0.1200
     39 H13       -44.9572   -41.0490    -0.1624 H          1  LIG1   0.4100
     40 H14       -40.4118   -42.2483     0.6560 H          1  LIG1   0.1900
     41 H15       -39.8118   -40.2301    -4.4232 H          1  LIG1   0.1200
     42 H16       -41.5817   -38.7286    -5.2140 H          1  LIG1   0.1300
     43 H17       -43.4949   -38.1939    -3.7602 H          1  LIG1   0.1300
     44 H18       -43.6542   -39.1458    -1.5270 H          1  LIG1   0.1300
@<TRIPOS>BOND
     1    1    2 2
     2    2    3 1
     3    2    4 1
     4    4    5 1
     5    4   28 1
     6    4   29 1
     7    5    6 1
     8    5   30 1
     9    5   31 1
    10    6    7 1
    11    6    8 1
    12    6   15 1
    13    8    9 1
    14    8   32 1
    15    8   33 1
    16    9   14 ar
    17    9   10 ar
    18   10   11 ar
    19   10   34 1
    20   11   12 ar
    21   11   35 1
    22   12   13 ar
    23   12   36 1
    24   13   14 ar
    25   13   37 1
    26   14   38 1
    27   15   16 1
    28   15   39 1
    29   16   17 2
    30   16   18 2
    31   16   19 1
    32   19   27 1
    33   19   20 2
    34   20   21 1
    35   20   40 1
    36   21   22 1
    37   22   27 ar
    38   22   23 ar
    39   23   24 ar
    40   23   41 1
    41   24   25 ar
    42   24   42 1
    43   25   26 ar
    44   25   43 1
    45   26   27 ar
    46   26   44 1
##########                 Name:     ZINC000740013401
##########          Protonation:                 none
##########               SMILES:   O=C([O-])NC1=CC(NS(=O)(=O)C2=CC=C3CCCCC3=C2)=CC=C1F
##########            Long Name:   NO_LONG_NAME
##########          FlexRecCode: 1
##########               Number:                28688
##########   Ligand Source File: /bks/ex4/3D/FH/ADRM/FHADRM.xac.db2.gz
##########                 Rank:                    1
##########               Setnum:                  128
##########             Matchnum:                    1
##########                Cloud:                    1
##########        Electrostatic:           -82.362396
##########                 Gist:             0.000000
##########        Van der Waals:           -18.766420
##########  Ligand Polar Desolv:            33.887474
########## Ligand Apolar Desolv:            -4.493466
##########      Internal Energy:             0.000000
##########      Receptor Energy:             0.000000
########## Receptor Desolvation:             0.000000
########## Receptor Hydrophobic:             0.000000
##########         Total Energy:           -71.734802
##########        Ligand Charge:            -1.000000
##########            Arbitrary:    +999.9990
##########        Ligand Energy:             0.000000

@<TRIPOS>MOLECULE
 ZINC000736298324      none
   49    50    -1     0     0



@<TRIPOS>ATOM
      1 C1        -39.5709   -37.2070    -6.1692 C.3        1  LIG1  -0.1400
      2 C2        -39.1328   -38.5694    -5.6281 C.3        1  LIG1  -0.0300
      3 C3        -39.2497   -39.6192    -6.7348 C.3        1  LIG1  -0.1400
      4 C4        -37.6801   -38.4868    -5.1547 C.3        1  LIG1  -0.1400
      5 C5        -40.0167   -38.9583    -4.4712 C.ar       1  LIG1  -0.0800
      6 C6        -39.8066   -40.1555    -3.8128 C.ar       1  LIG1  -0.1200
      7 C7        -40.6173   -40.5123    -2.7516 C.ar       1  LIG1  -0.1100
      8 C8        -41.6380   -39.6716    -2.3485 C.ar       1  LIG1  -0.0800
      9 C9        -42.5222   -40.0610    -1.1919 C.3        1  LIG1  -0.0800
     10 C10       -41.9184   -39.5341     0.1115 C.3        1  LIG1  -0.1000
     11 C11       -42.8162   -39.9294     1.2857 C.3        1  LIG1  -0.1400
     12 C12       -42.9236   -41.4312     1.3527 C.2        1  LIG1   0.5100
     13 O1        -42.0041   -42.1226     0.9687 O.2        1  LIG1  -0.5200
     14 N1        -44.0416   -42.0056     1.8391 N.am       1  LIG1  -0.6600
     15 C13       -44.1415   -43.4026     1.9014 C.2        1  LIG1  -0.0300
     16 C14       -43.4830   -44.1804     0.9956 C.2        1  LIG1   0.0300
     17 C15       -43.6038   -45.5902     1.0856 C.2        1  LIG1  -0.2400
     18 C16       -42.9055   -46.4563     0.1238 C.2        1  LIG1   0.5400
     19 O2        -42.2170   -45.9607    -0.7581 O.co2      1  LIG1  -0.6900
     20 O3        -43.0129   -47.6725     0.2056 O.co2      1  LIG1  -0.6800
     21 C17       -44.3818   -46.1445     2.0834 C.2        1  LIG1   0.1500
     22 N2        -45.0235   -45.3583     2.9674 N.am       1  LIG1  -0.6000
     23 C18       -44.9215   -44.0180     2.9078 C.2        1  LIG1   0.5200
     24 O4        -45.5132   -43.3290     3.7215 O.2        1  LIG1  -0.5600
     25 C19       -41.8473   -38.4739    -3.0060 C.ar       1  LIG1  -0.1100
     26 C20       -41.0340   -38.1153    -4.0647 C.ar       1  LIG1  -0.1100
     27 H1        -39.4876   -36.4590    -5.3806 H          1  LIG1   0.0600
     28 H2        -38.9316   -36.9256    -7.0060 H          1  LIG1   0.0600
     29 H3        -40.6058   -37.2657    -6.5063 H          1  LIG1   0.0600
     30 H4        -38.9374   -40.5899    -6.3493 H          1  LIG1   0.0600
     31 H5        -40.2846   -39.6781    -7.0718 H          1  LIG1   0.0600
     32 H6        -38.6104   -39.3379    -7.5716 H          1  LIG1   0.0600
     33 H7        -37.3678   -39.4574    -4.7692 H          1  LIG1   0.0600
     34 H8        -37.0409   -38.2053    -5.9914 H          1  LIG1   0.0600
     35 H9        -37.5970   -37.7387    -4.3662 H          1  LIG1   0.0600
     36 H10       -39.0091   -40.8123    -4.1278 H          1  LIG1   0.1200
     37 H11       -40.4536   -41.4479    -2.2377 H          1  LIG1   0.1200
     38 H12       -43.5142   -39.6315    -1.3324 H          1  LIG1   0.0700
     39 H13       -42.6001   -41.1470    -1.1435 H          1  LIG1   0.0700
     40 H14       -40.9265   -39.9636     0.2520 H          1  LIG1   0.0700
     41 H15       -41.8405   -38.4481     0.0631 H          1  LIG1   0.0700
     42 H16       -42.3859   -39.5543     2.2143 H          1  LIG1   0.0900
     43 H17       -43.8081   -39.5001     1.1453 H          1  LIG1   0.0900
     44 H18       -44.7769   -41.4526     2.1461 H          1  LIG1   0.4000
     45 H19       -42.8794   -43.7299     0.2217 H          1  LIG1   0.1400
     46 H20       -44.4762   -47.2180     2.1545 H          1  LIG1   0.1800
     47 H21       -45.5655   -45.7648     3.6615 H          1  LIG1   0.4100
     48 H22       -42.6445   -37.8170    -2.6908 H          1  LIG1   0.1200
     49 H23       -41.1974   -37.1795    -4.5785 H          1  LIG1   0.1200
@<TRIPOS>BOND
     1    1    2 1
     2    1   27 1
     3    1   28 1
     4    1   29 1
     5    2    3 1
     6    2    4 1
     7    2    5 1
     8    3   30 1
     9    3   31 1
    10    3   32 1
    11    4   33 1
    12    4   34 1
    13    4   35 1
    14    5   26 ar
    15    5    6 ar
    16    6    7 ar
    17    6   36 1
    18    7    8 ar
    19    7   37 1
    20    8    9 1
    21    8   25 ar
    22    9   10 1
    23    9   38 1
    24    9   39 1
    25   10   11 1
    26   10   40 1
    27   10   41 1
    28   11   12 1
    29   11   42 1
    30   11   43 1
    31   12   13 2
    32   12   14 am
    33   14   15 1
    34   14   44 1
    35   15   23 1
    36   15   16 2
    37   16   17 1
    38   16   45 1
    39   17   18 1
    40   17   21 2
    41   18   19 2
    42   18   20 1
    43   21   22 1
    44   21   46 1
    45   22   23 am
    46   22   47 1
    47   23   24 2
    48   25   26 ar
    49   25   48 1
    50   26   49 1
##########                 Name:     ZINC000794758029
##########          Protonation:                 none
##########               SMILES:   O=C([O-])[C@@H](NS(=O)(=O)CCC1=CC=CC(Cl)=C1)[C@@H](O)C1=CC=CC=C1
##########            Long Name:   NO_LONG_NAME
##########          FlexRecCode: 1
##########               Number:                50978
##########   Ligand Source File: /bks/ex7/3D/GD/ADRM/GDADRM.xal.db2.gz
##########                 Rank:                    1
##########               Setnum:                  514
##########             Matchnum:                    1
##########                Cloud:                    1
##########        Electrostatic:           -72.521225
##########                 Gist:             0.000000
##########        Van der Waals:           -23.470327
##########  Ligand Polar Desolv:            29.184086
########## Ligand Apolar Desolv:            -4.052905
##########      Internal Energy:             0.000000
##########      Receptor Energy:             0.000000
########## Receptor Desolvation:             0.000000
########## Receptor Hydrophobic:             0.000000
##########         Total Energy:           -70.860374
##########        Ligand Charge:            -1.000000
##########            Arbitrary:    +999.9990
##########        Ligand Energy:             0.000000

@<TRIPOS>MOLECULE
 ZINC000794758029      none
   42    43    -1     0     0



@<TRIPOS>ATOM
      1 O1        -42.2191   -45.3162    -0.7582 O.co2      1  LIG1  -0.6700
      2 C1        -43.3787   -44.9740    -0.6005 C.2        1  LIG1   0.4700
      3 O2        -44.1846   -45.1168    -1.5042 O.co2      1  LIG1  -0.6700
      4 C2        -43.8172   -44.3804     0.7133 C.3        1  LIG1   0.0400
      5 H1        -42.9669   -44.3365     1.3940 H          1  LIG1   0.0900
      6 N1        -44.3339   -43.0279     0.4898 N.pl3      1  LIG1  -1.0800
      7 S1        -43.3102   -41.7281     0.5605 S.o2       1  LIG1   2.6200
      8 O3        -44.1503   -40.6396     0.9194 O.2        1  LIG1  -0.9700
      9 O4        -42.2595   -42.1558     1.4162 O.2        1  LIG1  -0.9700
     10 C3        -42.7075   -41.5335    -1.1392 C.3        1  LIG1  -0.6100
     11 C4        -41.7407   -40.3495    -1.2052 C.3        1  LIG1  -0.0700
     12 C5        -41.2400   -40.1879    -2.6175 C.ar       1  LIG1  -0.0500
     13 C6        -40.0955   -40.8475    -3.0245 C.ar       1  LIG1  -0.1100
     14 C7        -39.6358   -40.7001    -4.3201 C.ar       1  LIG1  -0.1000
     15 C8        -40.3202   -39.8928    -5.2088 C.ar       1  LIG1  -0.1200
     16 C9        -41.4660   -39.2323    -4.8019 C.ar       1  LIG1  -0.0300
     17 Cl1       -42.3265   -38.2185    -5.9178 Cl         1  LIG1  -0.0800
     18 C10       -41.9286   -39.3847    -3.5072 C.ar       1  LIG1  -0.1000
     19 C11       -44.9160   -45.2515     1.3253 C.3        1  LIG1   0.1600
     20 H2        -45.7663   -45.2954     0.6446 H          1  LIG1   0.1000
     21 O5        -44.4120   -46.5706     1.5434 O.3        1  LIG1  -0.5600
     22 C12       -45.3545   -44.6576     2.6391 C.ar       1  LIG1  -0.1200
     23 C13       -44.7214   -45.0283     3.8108 C.ar       1  LIG1  -0.0200
     24 C14       -45.1236   -44.4836     5.0159 C.ar       1  LIG1  -0.1400
     25 C15       -46.1586   -43.5678     5.0493 C.ar       1  LIG1  -0.1200
     26 C16       -46.7910   -43.1964     3.8777 C.ar       1  LIG1  -0.1500
     27 C17       -46.3860   -43.7379     2.6719 C.ar       1  LIG1  -0.1100
     28 H3        -45.2758   -42.8937     0.3004 H          1  LIG1   0.4200
     29 H4        -42.1906   -42.4423    -1.4477 H          1  LIG1   0.1300
     30 H5        -43.5510   -41.3514    -1.8053 H          1  LIG1   0.1500
     31 H6        -42.2576   -39.4408    -0.8968 H          1  LIG1   0.0900
     32 H7        -40.8972   -40.5316    -0.5393 H          1  LIG1   0.0900
     33 H8        -39.5600   -41.4780    -2.3302 H          1  LIG1   0.1300
     34 H9        -38.7416   -41.2157    -4.6376 H          1  LIG1   0.1300
     35 H10       -39.9606   -39.7772    -6.2206 H          1  LIG1   0.1300
     36 H11       -42.8228   -38.8694    -3.1890 H          1  LIG1   0.1400
     37 H12       -45.0564   -47.1789     1.9306 H          1  LIG1   0.3800
     38 H13       -43.9129   -45.7438     3.7845 H          1  LIG1   0.1300
     39 H14       -44.6295   -44.7738     5.9314 H          1  LIG1   0.1100
     40 H15       -46.4732   -43.1427     5.9910 H          1  LIG1   0.1100
     41 H16       -47.5998   -42.4811     3.9039 H          1  LIG1   0.1100
     42 H17       -46.8801   -43.4477     1.7565 H          1  LIG1   0.1100
@<TRIPOS>BOND
     1    1    2 2
     2    2    3 1
     3    2    4 1
     4    4    5 1
     5    4    6 1
     6    4   19 1
     7    6    7 1
     8    6   28 1
     9    7    8 2
    10    7    9 2
    11    7   10 1
    12   10   11 1
    13   10   29 1
    14   10   30 1
    15   11   12 1
    16   11   31 1
    17   11   32 1
    18   12   18 ar
    19   12   13 ar
    20   13   14 ar
    21   13   33 1
    22   14   15 ar
    23   14   34 1
    24   15   16 ar
    25   15   35 1
    26   16   17 1
    27   16   18 ar
    28   18   36 1
    29   19   20 1
    30   19   21 1
    31   19   22 1
    32   21   37 1
    33   22   27 ar
    34   22   23 ar
    35   23   24 ar
    36   23   38 1
    37   24   25 ar
    38   24   39 1
    39   25   26 ar
    40   25   40 1
    41   26   27 ar
    42   26   41 1
    43   27   42 1
##########                 Name:     ZINC000902032720
##########          Protonation:                 none
##########               SMILES:   O=C([O-])[C@H](CC1=CC=NC=C1)NC(=O)[C@@H]1CCCN(C2=CC=CC=C2)C1=O
##########            Long Name:   NO_LONG_NAME
##########          FlexRecCode: 1
##########               Number:                44566
##########   Ligand Source File: /mnt/nfs/ex3/published/3D/FD/ADRM/FDADRM.xdb.db2.gz
##########                 Rank:                    1
##########               Setnum:                   58
##########             Matchnum:                    1
##########                Cloud:                    1
##########        Electrostatic:           -66.513527
##########                 Gist:             0.000000
##########        Van der Waals:           -34.612194
##########  Ligand Polar Desolv:            38.097492
########## Ligand Apolar Desolv:            -6.494809
##########      Internal Energy:             0.000000
##########      Receptor Energy:             0.000000
########## Receptor Desolvation:             0.000000
########## Receptor Hydrophobic:             0.000000
##########         Total Energy:           -69.523033
##########        Ligand Charge:            -1.000000
##########            Arbitrary:    +999.9990
##########        Ligand Energy:             0.000000

@<TRIPOS>MOLECULE
 ZINC000191693438      none
   49    52     0     0     0



@<TRIPOS>ATOM
      1 F1        -42.9241   -39.2542    -2.1880 F          1  LIG1  -0.1400
      2 C1        -41.9593   -40.0653    -2.6744 C.ar       1  LIG1   0.1000
      3 C2        -41.9857   -40.4539    -4.0027 C.ar       1  LIG1  -0.1500
      4 C3        -40.9982   -41.2838    -4.4993 C.ar       1  LIG1  -0.0900
      5 C4        -39.9845   -41.7257    -3.6700 C.ar       1  LIG1  -0.1200
      6 C5        -39.9572   -41.3384    -2.3429 C.ar       1  LIG1  -0.0900
      7 C6        -40.9402   -40.5041    -1.8458 C.ar       1  LIG1  -0.1300
      8 C7        -40.9101   -40.0820    -0.3994 C.3        1  LIG1  -0.0900
      9 C8        -42.1851   -40.5603     0.2981 C.3        1  LIG1   0.1300
     10 H1        -43.0362   -40.4281    -0.3700 H          1  LIG1   0.0800
     11 N1        -42.0503   -41.9816     0.6439 N.3        1  LIG1  -0.6800
     12 C9        -43.3658   -42.5959     0.8683 C.3        1  LIG1   0.1500
     13 C10       -43.2512   -44.0923     0.7324 C.2        1  LIG1   0.1900
     14 N2        -42.6112   -44.7382    -0.2042 N.2        1  LIG1  -0.2800
     15 N3        -42.7194   -46.0049    -0.0142 N.2        1  LIG1  -0.2900
     16 C11       -43.4341   -46.2345     1.0537 C.2        1  LIG1   0.1600
     17 N4        -43.7914   -45.0240     1.5676 N.pl3      1  LIG1  -0.4200
     18 C12       -44.5635   -44.7861     2.7142 C.ar       1  LIG1   0.1000
     19 C13       -44.1275   -45.2374     3.9523 C.ar       1  LIG1  -0.1000
     20 C14       -44.8898   -45.0012     5.0797 C.ar       1  LIG1  -0.1000
     21 C15       -46.0864   -44.3162     4.9758 C.ar       1  LIG1  -0.1100
     22 C16       -46.5233   -43.8653     3.7438 C.ar       1  LIG1  -0.1100
     23 C17       -45.7624   -44.0937     2.6138 C.ar       1  LIG1  -0.1100
     24 C18       -42.4025   -39.7563     1.5539 C.ar       1  LIG1  -0.0700
     25 C19       -43.6853   -39.5324     2.0180 C.ar       1  LIG1  -0.0900
     26 C20       -43.8847   -38.7948     3.1700 C.ar       1  LIG1  -0.1200
     27 C21       -42.8010   -38.2809     3.8579 C.ar       1  LIG1  -0.1200
     28 C22       -41.5186   -38.5060     3.3946 C.ar       1  LIG1  -0.1200
     29 C23       -41.3189   -39.2472     2.2450 C.ar       1  LIG1  -0.1100
     30 H2        -42.7779   -40.1091    -4.6509 H          1  LIG1   0.1300
     31 H3        -41.0188   -41.5873    -5.5355 H          1  LIG1   0.1300
     32 H4        -39.2136   -42.3744    -4.0587 H          1  LIG1   0.1300
     33 H5        -39.1647   -41.6842    -1.6959 H          1  LIG1   0.1300
     34 H6        -40.0413   -40.5225     0.0897 H          1  LIG1   0.0900
     35 H7        -40.8488   -38.9953    -0.3393 H          1  LIG1   0.0900
     36 H8        -41.5353   -42.4795    -0.0669 H          1  LIG1   0.3500
     37 H9        -43.7164   -42.3478     1.8701 H          1  LIG1   0.0900
     38 H10       -44.0740   -42.2173     0.1312 H          1  LIG1   0.0700
     39 H11       -43.6907   -47.2030     1.4569 H          1  LIG1   0.2200
     40 H12       -43.1933   -45.7732     4.0340 H          1  LIG1   0.1500
     41 H13       -44.5510   -45.3522     6.0433 H          1  LIG1   0.1300
     42 H14       -46.6811   -44.1333     5.8585 H          1  LIG1   0.1300
     43 H15       -47.4583   -43.3306     3.6655 H          1  LIG1   0.1300
     44 H16       -46.1040   -43.7410     1.6518 H          1  LIG1   0.1300
     45 H17       -44.5317   -39.9336     1.4804 H          1  LIG1   0.1200
     46 H18       -44.8868   -38.6195     3.5320 H          1  LIG1   0.1200
     47 H19       -42.9574   -37.7051     4.7580 H          1  LIG1   0.1200
     48 H20       -40.6721   -38.1046     3.9320 H          1  LIG1   0.1200
     49 H21       -40.3166   -39.4227     1.8829 H          1  LIG1   0.1200
@<TRIPOS>BOND
     1    1    2 1
     2    2    7 ar
     3    2    3 ar
     4    3    4 ar
     5    3   30 1
     6    4    5 ar
     7    4   31 1
     8    5    6 ar
     9    5   32 1
    10    6    7 ar
    11    6   33 1
    12    7    8 1
    13    8    9 1
    14    8   34 1
    15    8   35 1
    16    9   10 1
    17    9   11 1
    18    9   24 1
    19   11   12 1
    20   11   36 1
    21   12   13 1
    22   12   37 1
    23   12   38 1
    24   13   17 1
    25   13   14 2
    26   14   15 1
    27   15   16 2
    28   16   17 1
    29   16   39 1
    30   17   18 1
    31   18   23 ar
    32   18   19 ar
    33   19   20 ar
    34   19   40 1
    35   20   21 ar
    36   20   41 1
    37   21   22 ar
    38   21   42 1
    39   22   23 ar
    40   22   43 1
    41   23   44 1
    42   24   29 ar
    43   24   25 ar
    44   25   26 ar
    45   25   45 1
    46   26   27 ar
    47   26   46 1
    48   27   28 ar
    49   27   47 1
    50   28   29 ar
    51   28   48 1
    52   29   49 1
##########                 Name:     ZINC001263911881
##########          Protonation:                 none
##########               SMILES:   C[C@H](SC1=CC=CC=C1Cl)C(=O)N1CCC[C@@H](CC2=NN=N[N-]2)C1
##########            Long Name:   NO_LONG_NAME
##########          FlexRecCode: 1
##########               Number:                66319
##########   Ligand Source File: /bks/ex4/3D/FF/ADRM/FFADRM.xcd.db2.gz
##########                 Rank:                    1
##########               Setnum:                   32
##########             Matchnum:                    1
##########                Cloud:                    1
##########        Electrostatic:           -64.632790
##########                 Gist:             0.000000
##########        Van der Waals:           -26.275074
##########  Ligand Polar Desolv:            31.407745
########## Ligand Apolar Desolv:            -6.165404
##########      Internal Energy:             0.000000
##########      Receptor Energy:             0.000000
########## Receptor Desolvation:             0.000000
########## Receptor Hydrophobic:             0.000000
##########         Total Energy:           -65.665527
##########        Ligand Charge:            -1.000000
##########            Arbitrary:    +999.9990
##########        Ligand Energy:             0.000000

@<TRIPOS>MOLECULE
 ZINC001263911881      none
   43    45    -1     0     0



@<TRIPOS>ATOM
      1 C1        -40.4675   -40.7588     0.3172 C.3        1  LIG1  -0.1300
      2 C2        -41.7302   -41.5604    -0.0053 C.3        1  LIG1  -0.1200
      3 H1        -41.4568   -42.5876    -0.2460 H          1  LIG1   0.1100
      4 S1        -42.5758   -40.8113    -1.4247 S.3        1  LIG1  -0.0300
      5 C3        -41.3669   -40.9088    -2.7029 C.ar       1  LIG1  -0.0800
      6 C4        -40.4377   -41.9413    -2.7053 C.ar       1  LIG1  -0.1200
      7 C5        -39.4916   -42.0149    -3.7091 C.ar       1  LIG1  -0.0900
      8 C6        -39.4683   -41.0620    -4.7111 C.ar       1  LIG1  -0.1100
      9 C7        -40.3914   -40.0321    -4.7125 C.ar       1  LIG1  -0.0900
     10 C8        -41.3442   -39.9551    -3.7151 C.ar       1  LIG1  -0.0200
     11 Cl1       -42.5031   -38.6627    -3.7179 Cl         1  LIG1  -0.0600
     12 C9        -42.6494   -41.5518     1.1889 C.2        1  LIG1   0.5100
     13 O1        -42.3264   -40.9626     2.1985 O.2        1  LIG1  -0.5100
     14 N1        -43.8305   -42.1988     1.1347 N.am       1  LIG1  -0.6000
     15 C10       -44.9829   -41.7192     1.9096 C.3        1  LIG1   0.1000
     16 C11       -45.5210   -42.8747     2.7593 C.3        1  LIG1  -0.1400
     17 C12       -45.8261   -44.0699     1.8533 C.3        1  LIG1  -0.1100
     18 C13       -44.5393   -44.5334     1.1670 C.3        1  LIG1  -0.0900
     19 H2        -43.8012   -44.8038     1.9222 H          1  LIG1   0.0700
     20 C14       -44.8390   -45.7491     0.2876 C.3        1  LIG1   0.0000
     21 C15       -43.5717   -46.2041    -0.3892 C.2        1  LIG1   0.0600
     22 N2        -43.1113   -45.7941    -1.5621 N.2        1  LIG1  -0.3900
     23 N3        -42.0055   -46.4180    -1.7864 N.2        1  LIG1  -0.2000
     24 N4        -41.7586   -47.2030    -0.7962 N.2        1  LIG1  -0.2000
     25 N5        -42.7007   -47.0873     0.0766 N.2        1  LIG1  -0.3900
     26 C16       -43.9916   -43.3935     0.2949 C.3        1  LIG1   0.1200
     27 H3        -40.7409   -39.7315     0.5579 H          1  LIG1   0.0700
     28 H4        -39.9594   -41.2089     1.1700 H          1  LIG1   0.0800
     29 H5        -39.8027   -40.7649    -0.5465 H          1  LIG1   0.0800
     30 H6        -40.4548   -42.6856    -1.9229 H          1  LIG1   0.1200
     31 H7        -38.7692   -42.8176    -3.7113 H          1  LIG1   0.1300
     32 H8        -38.7270   -41.1223    -5.4942 H          1  LIG1   0.1400
     33 H9        -40.3697   -39.2896    -5.4965 H          1  LIG1   0.1400
     34 H10       -44.6714   -40.9018     2.5598 H          1  LIG1   0.0800
     35 H11       -45.7612   -41.3721     1.2300 H          1  LIG1   0.0700
     36 H12       -44.7737   -43.1607     3.4995 H          1  LIG1   0.0600
     37 H13       -46.4334   -42.5598     3.2657 H          1  LIG1   0.0700
     38 H14       -46.2323   -44.8850     2.4522 H          1  LIG1   0.0800
     39 H15       -46.5551   -43.7763     1.0980 H          1  LIG1   0.0600
     40 H16       -45.2311   -46.5569     0.9057 H          1  LIG1   0.0700
     41 H17       -45.5771   -45.4783    -0.4674 H          1  LIG1   0.0700
     42 H18       -44.6903   -43.1855    -0.5156 H          1  LIG1   0.0700
     43 H19       -43.0249   -43.6815    -0.1182 H          1  LIG1   0.0900
@<TRIPOS>BOND
     1    1    2 1
     2    1   27 1
     3    1   28 1
     4    1   29 1
     5    2    3 1
     6    2    4 1
     7    2   12 1
     8    4    5 1
     9    5   10 ar
    10    5    6 ar
    11    6    7 ar
    12    6   30 1
    13    7    8 ar
    14    7   31 1
    15    8    9 ar
    16    8   32 1
    17    9   10 ar
    18    9   33 1
    19   10   11 1
    20   12   13 2
    21   12   14 am
    22   14   26 1
    23   14   15 1
    24   15   16 1
    25   15   34 1
    26   15   35 1
    27   16   17 1
    28   16   36 1
    29   16   37 1
    30   17   18 1
    31   17   38 1
    32   17   39 1
    33   18   19 1
    34   18   20 1
    35   18   26 1
    36   20   21 1
    37   20   40 1
    38   20   41 1
    39   21   25 1
    40   21   22 2
    41   22   23 1
    42   23   24 2
    43   24   25 1
    44   26   42 1
    45   26   43 1
##########                 Name:     ZINC000184728414
##########          Protonation:                 none
##########               SMILES:   O=C(N[N-]C(=O)C1=CC=C(Br)S1)NC1=CC=C2SC=NC2=C1
##########            Long Name:   NO_LONG_NAME
##########          FlexRecCode: 1
##########               Number:                42919
##########   Ligand Source File: /bks/ex7/3D/GH/ADRM/GHADRM.xca.db2.gz
##########                 Rank:                    1
##########               Setnum:                  154
##########             Matchnum:                    1
##########                Cloud:                    1
##########        Electrostatic:           -59.678215
##########                 Gist:             0.000000
##########        Van der Waals:           -30.214928
##########  Ligand Polar Desolv:            26.303879
########## Ligand Apolar Desolv:            -2.123897
##########      Internal Energy:             0.000000
##########      Receptor Energy:             0.000000
########## Receptor Desolvation:             0.000000
########## Receptor Hydrophobic:             0.000000
##########         Total Energy:           -65.713165
##########        Ligand Charge:            -1.000000
##########            Arbitrary:    +999.9990
##########        Ligand Energy:             0.000000

@<TRIPOS>MOLECULE
 ZINC000002144217      none
   44    44    -1     0     0



@<TRIPOS>ATOM
      1 C1        -39.4225   -40.4593    -4.8467 C.3        1  LIG1  -0.1500
      2 C2        -40.0006   -40.9286    -3.5101 C.3        1  LIG1  -0.1300
      3 C3        -40.8142   -39.7960    -2.8806 C.3        1  LIG1  -0.1200
      4 C4        -41.3924   -40.2651    -1.5441 C.3        1  LIG1  -0.1200
      5 C5        -42.2060   -39.1325    -0.9147 C.3        1  LIG1  -0.1300
      6 C6        -42.7842   -39.6018     0.4220 C.3        1  LIG1   0.1400
      7 N1        -43.6521   -40.7608     0.1985 N.am       1  LIG1  -0.7500
      8 C7        -43.3719   -41.9370     0.7937 C.2        1  LIG1   0.7100
      9 O1        -42.3989   -42.0363     1.5161 O.2        1  LIG1  -0.6000
     10 N2        -44.1703   -43.0033     0.5882 N.am       1  LIG1  -0.7100
     11 C8        -43.8658   -44.2819     1.2352 C.3        1  LIG1   0.2300
     12 H1        -42.7885   -44.3709     1.3749 H          1  LIG1   0.0900
     13 C9        -44.3625   -45.4302     0.3545 C.3        1  LIG1  -0.1900
     14 C10       -43.3708   -45.6795    -0.7525 C.2        1  LIG1   0.4900
     15 O2        -43.7167   -45.5712    -1.9166 O.co2      1  LIG1  -0.6800
     16 O3        -42.2226   -45.9896    -0.4839 O.co2      1  LIG1  -0.7100
     17 C11       -44.5528   -44.3431     2.5752 C.ar       1  LIG1  -0.0800
     18 C12       -43.9880   -45.0664     3.6090 C.ar       1  LIG1  -0.1100
     19 C13       -44.6180   -45.1225     4.8381 C.ar       1  LIG1  -0.1300
     20 C14       -45.8127   -44.4551     5.0335 C.ar       1  LIG1  -0.1300
     21 C15       -46.3771   -43.7311     3.9999 C.ar       1  LIG1  -0.1200
     22 C16       -45.7448   -43.6715     2.7721 C.ar       1  LIG1  -0.1100
     23 H2        -38.8428   -41.2662    -5.2951 H          1  LIG1   0.0500
     24 H3        -40.2358   -40.1805    -5.5166 H          1  LIG1   0.0500
     25 H4        -38.7767   -39.5970    -4.6806 H          1  LIG1   0.0500
     26 H5        -40.6463   -41.7908    -3.6762 H          1  LIG1   0.0600
     27 H6        -39.1872   -41.2074    -2.8402 H          1  LIG1   0.0600
     28 H7        -40.1685   -38.9336    -2.7146 H          1  LIG1   0.0600
     29 H8        -41.6276   -39.5170    -3.5506 H          1  LIG1   0.0600
     30 H9        -42.0380   -41.1275    -1.7102 H          1  LIG1   0.0700
     31 H10       -40.5790   -40.5440    -0.8742 H          1  LIG1   0.0600
     32 H11       -41.5602   -38.2703    -0.7486 H          1  LIG1   0.0700
     33 H12       -43.0194   -38.8537    -1.5846 H          1  LIG1   0.0700
     34 H13       -41.9709   -39.8807     1.0918 H          1  LIG1   0.0600
     35 H14       -43.3638   -38.7949     0.8703 H          1  LIG1   0.0600
     36 H15       -44.4283   -40.6816    -0.3778 H          1  LIG1   0.3900
     37 H16       -44.9466   -42.9240     0.0121 H          1  LIG1   0.3900
     38 H17       -44.4676   -46.3317     0.9581 H          1  LIG1   0.0700
     39 H18       -45.3286   -45.1663    -0.0757 H          1  LIG1   0.0600
     40 H19       -43.0546   -45.5878     3.4564 H          1  LIG1   0.1200
     41 H20       -44.1772   -45.6882     5.6456 H          1  LIG1   0.1200
     42 H21       -46.3054   -44.4995     5.9935 H          1  LIG1   0.1100
     43 H22       -47.3106   -43.2100     4.1524 H          1  LIG1   0.1200
     44 H23       -46.1858   -43.1058     1.9645 H          1  LIG1   0.1200
@<TRIPOS>BOND
     1    1    2 1
     2    1   23 1
     3    1   24 1
     4    1   25 1
     5    2    3 1
     6    2   26 1
     7    2   27 1
     8    3    4 1
     9    3   28 1
    10    3   29 1
    11    4    5 1
    12    4   30 1
    13    4   31 1
    14    5    6 1
    15    5   32 1
    16    5   33 1
    17    6    7 1
    18    6   34 1
    19    6   35 1
    20    7    8 am
    21    7   36 1
    22    8    9 2
    23    8   10 am
    24   10   11 1
    25   10   37 1
    26   11   12 1
    27   11   13 1
    28   11   17 1
    29   13   14 1
    30   13   38 1
    31   13   39 1
    32   14   15 2
    33   14   16 1
    34   17   22 ar
    35   17   18 ar
    36   18   19 ar
    37   18   40 1
    38   19   20 ar
    39   19   41 1
    40   20   21 ar
    41   20   42 1
    42   21   22 ar
    43   21   43 1
    44   22   44 1
##########                 Name:     ZINC000786823916
##########          Protonation:                 none
##########               SMILES:   CN1[N-]N=NC1=NC[C@H](C(=O)OCC1=CC=CC=C1)C1=CC=CC=C1
##########            Long Name:   NO_LONG_NAME
##########          FlexRecCode: 1
##########               Number:                 5056
##########   Ligand Source File: /bks/ex5/3D/ED/ADRM/EDADRM.xarq.db2.gz
##########                 Rank:                    1
##########               Setnum:                  105
##########             Matchnum:                    1
##########                Cloud:                    1
##########        Electrostatic:           -58.936756
##########                 Gist:             0.000000
##########        Van der Waals:           -27.821882
##########  Ligand Polar Desolv:            28.410923
########## Ligand Apolar Desolv:            -8.077237
##########      Internal Energy:             0.000000
##########      Receptor Energy:             0.000000
########## Receptor Desolvation:             0.000000
########## Receptor Hydrophobic:             0.000000
##########         Total Energy:           -66.424950
##########        Ligand Charge:            -1.000000
##########            Arbitrary:    +999.9990
##########        Ligand Energy:             0.000000

@<TRIPOS>MOLECULE
 ZINC000786823916      none
   43    45    -1     0     0



@<TRIPOS>ATOM
      1 C1        -43.0271   -46.7246     1.7784 C.3        1  LIG1   0.1500
      2 N1        -42.8744   -46.6563     0.3230 N.pl3      1  LIG1  -0.4800
      3 N2        -42.8960   -47.7243    -0.5898 N.2        1  LIG1  -0.2100
      4 N3        -42.7269   -47.2419    -1.7700 N.2        1  LIG1  -0.0500
      5 N4        -42.5949   -45.9652    -1.7408 N.2        1  LIG1  -0.4900
      6 C2        -42.6833   -45.5238    -0.4522 C.2        1  LIG1   0.4800
      7 N5        -42.5964   -44.2897    -0.0351 N.2        1  LIG1  -0.6900
      8 C3        -42.3805   -43.2051    -0.9960 C.3        1  LIG1   0.1200
      9 C4        -41.6023   -42.0737    -0.3215 C.3        1  LIG1  -0.0400
     10 H1        -40.6395   -42.4503     0.0239 H          1  LIG1   0.1000
     11 C5        -42.3893   -41.5539     0.8539 C.2        1  LIG1   0.4700
     12 O1        -41.8130   -41.0932     1.8107 O.2        1  LIG1  -0.5000
     13 O2        -43.7306   -41.6028     0.8379 O.3        1  LIG1  -0.3500
     14 C6        -44.4232   -41.0842     2.0040 C.3        1  LIG1   0.1000
     15 C7        -45.7239   -41.8233     2.1858 C.ar       1  LIG1  -0.0900
     16 C8        -46.8076   -41.1846     2.7587 C.ar       1  LIG1  -0.1000
     17 C9        -48.0007   -41.8626     2.9254 C.ar       1  LIG1  -0.1200
     18 C10       -48.1101   -43.1793     2.5187 C.ar       1  LIG1  -0.1100
     19 C11       -47.0266   -43.8177     1.9450 C.ar       1  LIG1  -0.1200
     20 C12       -45.8348   -43.1384     1.7744 C.ar       1  LIG1  -0.0900
     21 C13       -41.3801   -40.9579    -1.3098 C.ar       1  LIG1  -0.0300
     22 C14       -40.2505   -40.9552    -2.1066 C.ar       1  LIG1  -0.1100
     23 C15       -40.0466   -39.9318    -3.0133 C.ar       1  LIG1  -0.1200
     24 C16       -40.9722   -38.9113    -3.1232 C.ar       1  LIG1  -0.1300
     25 C17       -42.1025   -38.9145    -2.3272 C.ar       1  LIG1  -0.1200
     26 C18       -42.3085   -39.9401    -1.4236 C.ar       1  LIG1  -0.1000
     27 H2        -43.1615   -47.7631     2.0813 H          1  LIG1   0.0400
     28 H3        -42.1355   -46.3192     2.2568 H          1  LIG1   0.0600
     29 H4        -43.8979   -46.1426     2.0802 H          1  LIG1   0.0700
     30 H5        -41.8113   -43.5809    -1.8462 H          1  LIG1   0.0500
     31 H6        -43.3433   -42.8285    -1.3412 H          1  LIG1   0.0500
     32 H7        -43.8003   -41.2222     2.8878 H          1  LIG1   0.0800
     33 H8        -44.6253   -40.0223     1.8641 H          1  LIG1   0.0800
     34 H9        -46.7222   -40.1560     3.0764 H          1  LIG1   0.1300
     35 H10       -48.8472   -41.3637     3.3737 H          1  LIG1   0.1200
     36 H11       -49.0420   -43.7093     2.6497 H          1  LIG1   0.1200
     37 H12       -47.1119   -44.8465     1.6277 H          1  LIG1   0.1200
     38 H13       -44.9883   -43.6373     1.3261 H          1  LIG1   0.1200
     39 H14       -39.5271   -41.7527    -2.0207 H          1  LIG1   0.1100
     40 H15       -39.1638   -39.9295    -3.6354 H          1  LIG1   0.1200
     41 H16       -40.8132   -38.1113    -3.8312 H          1  LIG1   0.1100
     42 H17       -42.8258   -38.1169    -2.4129 H          1  LIG1   0.1200
     43 H18       -43.1914   -39.9426    -0.8014 H          1  LIG1   0.1200
@<TRIPOS>BOND
     1    1    2 1
     2    1   27 1
     3    1   28 1
     4    1   29 1
     5    2    6 1
     6    2    3 1
     7    3    4 1
     8    4    5 2
     9    5    6 1
    10    6    7 2
    11    7    8 1
    12    8    9 1
    13    8   30 1
    14    8   31 1
    15    9   10 1
    16    9   11 1
    17    9   21 1
    18   11   12 2
    19   11   13 1
    20   13   14 1
    21   14   15 1
    22   14   32 1
    23   14   33 1
    24   15   20 ar
    25   15   16 ar
    26   16   17 ar
    27   16   34 1
    28   17   18 ar
    29   17   35 1
    30   18   19 ar
    31   18   36 1
    32   19   20 ar
    33   19   37 1
    34   20   38 1
    35   21   26 ar
    36   21   22 ar
    37   22   23 ar
    38   22   39 1
    39   23   24 ar
    40   23   40 1
    41   24   25 ar
    42   24   41 1
    43   25   26 ar
    44   25   42 1
    45   26   43 1
##########                 Name:     ZINC000739646810
##########          Protonation:                 none
##########               SMILES:   O=C([O-])C[C@H]1CN(C(=O)C2=CC(F)=C(Cl)N=C2Cl)C2=CC=CC=C21
##########            Long Name:   NO_LONG_NAME
##########          FlexRecCode: 1
##########               Number:                38518
##########   Ligand Source File: /bks/ex4/3D/FH/ADRM/FHADRM.xao.db2.gz
##########                 Rank:                    1
##########               Setnum:                  107
##########             Matchnum:                    1
##########                Cloud:                    1
##########        Electrostatic:           -58.658405
##########                 Gist:             0.000000
##########        Van der Waals:           -29.077665
##########  Ligand Polar Desolv:            27.519264
########## Ligand Apolar Desolv:            -6.582676
##########      Internal Energy:             0.000000
##########      Receptor Energy:             0.000000
########## Receptor Desolvation:             0.000000
########## Receptor Hydrophobic:             0.000000
##########         Total Energy:           -66.799484
##########        Ligand Charge:            -1.000000
##########            Arbitrary:    +999.9990
##########        Ligand Energy:             0.000000

@<TRIPOS>MOLECULE
 ZINC000740703705      none
   38    40    -1     0     0



@<TRIPOS>ATOM
      1 O1        -42.2191   -45.3205    -0.7989 O.co2      1  LIG1  -0.7000
      2 C1        -43.0915   -46.1261    -1.0926 C.2        1  LIG1   0.6500
      3 O2        -42.8835   -46.9641    -1.9590 O.co2      1  LIG1  -0.7000
      4 N1        -44.2799   -46.0938    -0.4576 N.am       1  LIG1  -0.7100
      5 C2        -44.5160   -45.1378     0.5385 C.ar       1  LIG1   0.2300
      6 C3        -44.8148   -45.5424     1.8325 C.ar       1  LIG1  -0.1100
      7 C4        -45.0485   -44.6003     2.8169 C.ar       1  LIG1  -0.1100
      8 C5        -44.9851   -43.2523     2.5160 C.ar       1  LIG1   0.0300
      9 F1        -45.2135   -42.3338     3.4801 F          1  LIG1  -0.1500
     10 C6        -44.6855   -42.8413     1.2208 C.ar       1  LIG1   0.1400
     11 N2        -44.6208   -41.4781     0.9163 N.pl3      1  LIG1  -1.0500
     12 S1        -43.1857   -40.6647     1.0611 S.o2       1  LIG1   2.7000
     13 O3        -43.5173   -39.2939     1.2355 O.2        1  LIG1  -0.9600
     14 O4        -42.4003   -41.3986     1.9904 O.2        1  LIG1  -0.9400
     15 C7        -42.3602   -40.7831    -0.4910 C.ar       1  LIG1  -0.6800
     16 C8        -41.5058   -41.8404    -0.7412 C.ar       1  LIG1   0.0000
     17 C9        -40.8598   -41.9316    -1.9590 C.ar       1  LIG1  -0.1200
     18 C10       -41.0654   -40.9669    -2.9307 C.ar       1  LIG1  -0.0400
     19 C11       -40.4875   -40.8390    -4.3238 C.3        1  LIG1  -0.0900
     20 C12       -41.4093   -39.8390    -5.0534 C.3        1  LIG1  -0.1200
     21 C13       -41.9747   -38.9989    -3.8885 C.3        1  LIG1  -0.0800
     22 C14       -41.9202   -39.9094    -2.6805 C.ar       1  LIG1  -0.1300
     23 C15       -42.5707   -39.8225    -1.4614 C.ar       1  LIG1  -0.0100
     24 C16       -44.4457   -43.7857     0.2337 C.ar       1  LIG1  -0.2100
     25 H1        -44.9716   -46.7328    -0.6904 H          1  LIG1   0.3900
     26 H2        -44.8650   -46.5947     2.0705 H          1  LIG1   0.1600
     27 H3        -45.2815   -44.9178     3.8225 H          1  LIG1   0.1300
     28 H4        -45.4166   -41.0090     0.6204 H          1  LIG1   0.4300
     29 H5        -41.3428   -42.5942     0.0148 H          1  LIG1   0.1500
     30 H6        -40.1922   -42.7577    -2.1535 H          1  LIG1   0.1300
     31 H7        -39.4701   -40.4507    -4.2769 H          1  LIG1   0.0900
     32 H8        -40.5017   -41.8046    -4.8292 H          1  LIG1   0.0800
     33 H9        -40.8374   -39.2143    -5.7395 H          1  LIG1   0.0800
     34 H10       -42.2091   -40.3612    -5.5783 H          1  LIG1   0.0700
     35 H11       -41.3573   -38.1157    -3.7246 H          1  LIG1   0.0800
     36 H12       -43.0044   -38.7082    -4.0968 H          1  LIG1   0.0800
     37 H13       -43.2421   -38.9992    -1.2670 H          1  LIG1   0.1400
     38 H14       -44.2126   -43.4694    -0.7723 H          1  LIG1   0.1600
@<TRIPOS>BOND
     1    1    2 2
     2    2    3 1
     3    2    4 am
     4    4    5 1
     5    4   25 1
     6    5   24 ar
     7    5    6 ar
     8    6    7 ar
     9    6   26 1
    10    7    8 ar
    11    7   27 1
    12    8    9 1
    13    8   10 ar
    14   10   11 1
    15   10   24 ar
    16   11   12 1
    17   11   28 1
    18   12   13 2
    19   12   14 2
    20   12   15 1
    21   15   23 ar
    22   15   16 ar
    23   16   17 ar
    24   16   29 1
    25   17   18 ar
    26   17   30 1
    27   18   22 ar
    28   18   19 1
    29   19   20 1
    30   19   31 1
    31   19   32 1
    32   20   21 1
    33   20   33 1
    34   20   34 1
    35   21   22 1
    36   21   35 1
    37   21   36 1
    38   22   23 ar
    39   23   37 1
    40   24   38 1
##########                 Name:     ZINC000903547417
##########          Protonation:                 none
##########               SMILES:   CN(C1=CC=CC(CC(=O)[O-])=C1)S(=O)(=O)CC1CC2=CC=CC=C2C1
##########            Long Name:   NO_LONG_NAME
##########          FlexRecCode: 1
##########               Number:                29826
##########   Ligand Source File: /bks/ex4/3D/FE/ADRM/FEADRM.xck.db2.gz
##########                 Rank:                    1
##########               Setnum:                  151
##########             Matchnum:                    1
##########                Cloud:                    1
##########        Electrostatic:           -77.008736
##########                 Gist:             0.000000
##########        Van der Waals:           -22.654646
##########  Ligand Polar Desolv:            35.161114
########## Ligand Apolar Desolv:            -7.883328
##########      Internal Energy:             0.000000
##########      Receptor Energy:             0.000000
########## Receptor Desolvation:             0.000000
########## Receptor Hydrophobic:             0.000000
##########         Total Energy:           -72.385597
##########        Ligand Charge:            -1.000000
##########            Arbitrary:    +999.9990
##########        Ligand Energy:             0.000000

@<TRIPOS>MOLECULE
 ZINC000903547417      none
   45    47    -1     0     0



@<TRIPOS>ATOM
      1 C1        -46.5313   -41.7417     1.7138 C.3        1  LIG1   0.0700
      2 N1        -45.1089   -42.0923     1.6952 N.pl3      1  LIG1  -0.9400
      3 C2        -44.7186   -43.4311     1.7736 C.ar       1  LIG1   0.1600
      4 C3        -44.4886   -44.0177     3.0113 C.ar       1  LIG1  -0.1800
      5 C4        -44.1031   -45.3420     3.0852 C.ar       1  LIG1  -0.0800
      6 C5        -43.9463   -46.0836     1.9288 C.ar       1  LIG1  -0.1400
      7 C6        -44.1741   -45.5024     0.6946 C.ar       1  LIG1   0.0100
      8 C7        -44.0019   -46.3147    -0.5630 C.3        1  LIG1  -0.1600
      9 C8        -42.5807   -46.1928    -1.0490 C.2        1  LIG1   0.5000
     10 O1        -42.2761   -45.3033    -1.8252 O.co2      1  LIG1  -0.6900
     11 O2        -41.7355   -46.9836    -0.6661 O.co2      1  LIG1  -0.7000
     12 C9        -44.5651   -44.1806     0.6138 C.ar       1  LIG1  -0.1400
     13 S1        -43.9639   -40.9014     1.5812 S.o2       1  LIG1   2.6000
     14 O3        -44.5967   -39.7532     2.1295 O.2        1  LIG1  -0.9400
     15 O4        -42.8108   -41.4642     2.1917 O.2        1  LIG1  -0.9500
     16 C10       -43.7028   -40.6937    -0.2019 C.3        1  LIG1  -0.6200
     17 C11       -42.6530   -39.6066    -0.4405 C.3        1  LIG1  -0.0800
     18 C12       -41.2298   -40.2033    -0.4156 C.3        1  LIG1  -0.1100
     19 C13       -40.9225   -40.5549    -1.8555 C.ar       1  LIG1  -0.0900
     20 C14       -39.9533   -41.3872    -2.3887 C.ar       1  LIG1  -0.1100
     21 C15       -39.8592   -41.5582    -3.7563 C.ar       1  LIG1  -0.1200
     22 C16       -40.7353   -40.8964    -4.5959 C.ar       1  LIG1  -0.1200
     23 C17       -41.7032   -40.0654    -4.0657 C.ar       1  LIG1  -0.1100
     24 C18       -41.7990   -39.8929    -2.6954 C.ar       1  LIG1  -0.1000
     25 C19       -42.7547   -39.0514    -1.8771 C.3        1  LIG1  -0.0700
     26 H1        -46.6396   -40.6593     1.6443 H          1  LIG1   0.0600
     27 H2        -47.0324   -42.2120     0.8677 H          1  LIG1   0.0900
     28 H3        -46.9800   -42.0928     2.6429 H          1  LIG1   0.0900
     29 H4        -44.6106   -43.4389     3.9149 H          1  LIG1   0.1100
     30 H5        -43.9238   -45.7987     4.0473 H          1  LIG1   0.1200
     31 H6        -43.6449   -47.1189     1.9895 H          1  LIG1   0.1200
     32 H7        -44.2259   -47.3606    -0.3535 H          1  LIG1   0.0700
     33 H8        -44.6815   -45.9442    -1.3307 H          1  LIG1   0.0700
     34 H9        -44.7428   -43.7274    -0.3502 H          1  LIG1   0.1200
     35 H10       -43.3559   -41.6340    -0.6303 H          1  LIG1   0.1400
     36 H11       -44.6407   -40.4031    -0.6750 H          1  LIG1   0.1400
     37 H12       -42.7535   -38.8059     0.2923 H          1  LIG1   0.1000
     38 H13       -40.5171   -39.4662    -0.0460 H          1  LIG1   0.0900
     39 H14       -41.2060   -41.0986     0.2056 H          1  LIG1   0.1000
     40 H15       -39.2680   -41.9043    -1.7333 H          1  LIG1   0.1200
     41 H16       -39.1017   -42.2079    -4.1691 H          1  LIG1   0.1200
     42 H17       -40.6631   -41.0287    -5.6653 H          1  LIG1   0.1200
     43 H18       -42.3875   -39.5487    -4.7225 H          1  LIG1   0.1200
     44 H19       -43.7718   -39.1603    -2.2535 H          1  LIG1   0.0800
     45 H20       -42.4519   -38.0046    -1.9003 H          1  LIG1   0.0900
@<TRIPOS>BOND
     1    1    2 1
     2    1   26 1
     3    1   27 1
     4    1   28 1
     5    2    3 1
     6    2   13 1
     7    3   12 ar
     8    3    4 ar
     9    4    5 ar
    10    4   29 1
    11    5    6 ar
    12    5   30 1
    13    6    7 ar
    14    6   31 1
    15    7    8 1
    16    7   12 ar
    17    8    9 1
    18    8   32 1
    19    8   33 1
    20    9   10 2
    21    9   11 1
    22   12   34 1
    23   13   14 2
    24   13   15 2
    25   13   16 1
    26   16   17 1
    27   16   35 1
    28   16   36 1
    29   17   25 1
    30   17   18 1
    31   17   37 1
    32   18   19 1
    33   18   38 1
    34   18   39 1
    35   19   24 ar
    36   19   20 ar
    37   20   21 ar
    38   20   40 1
    39   21   22 ar
    40   21   41 1
    41   22   23 ar
    42   22   42 1
    43   23   24 ar
    44   23   43 1
    45   24   25 1
    46   25   44 1
    47   25   45 1
##########                 Name:     ZINC000118552493
##########          Protonation:                 none
##########               SMILES:   CC1=CC=C(NC(=O)NCC2=C3C=CC=CC3=CC=C2)C=C1S(N)(=O)=O
##########            Long Name:   NO_LONG_NAME
##########          FlexRecCode: 1
##########               Number:                24127
##########   Ligand Source File: /bks/ex4/3D/FG/ADRN/FGADRN.xaah.db2.gz
##########                 Rank:                    1
##########               Setnum:                  196
##########             Matchnum:                    1
##########                Cloud:                    1
##########        Electrostatic:           -40.425285
##########                 Gist:             0.000000
##########        Van der Waals:           -30.432011
##########  Ligand Polar Desolv:             7.089648
########## Ligand Apolar Desolv:            -3.342278
##########      Internal Energy:             0.000000
##########      Receptor Energy:             0.000000
########## Receptor Desolvation:             0.000000
########## Receptor Hydrophobic:             0.000000
##########         Total Energy:           -67.109932
##########        Ligand Charge:             0.000000
##########            Arbitrary:    +999.9990
##########        Ligand Energy:             0.000000

@<TRIPOS>MOLECULE
 ZINC000609796099      none
   35    37    -1     0     0



@<TRIPOS>ATOM
      1 N1        -36.3656   -50.1258     2.5265 N.1        1  LIG1  -0.4000
      2 C1        -37.2823   -49.7721     1.9566 C.1        1  LIG1   0.2500
      3 C2        -38.4381   -49.3262     1.2382 C.ar       1  LIG1   0.0100
      4 C3        -39.6842   -49.2902     1.8671 C.ar       1  LIG1  -0.0800
      5 C4        -40.7934   -48.8592     1.1693 C.ar       1  LIG1  -0.0200
      6 C5        -40.6742   -48.4632    -0.1511 C.ar       1  LIG1  -0.5800
      7 S1        -42.0970   -47.9142    -1.0336 S.o2       1  LIG1   2.6000
      8 O1        -41.8147   -48.1111    -2.4124 O.2        1  LIG1  -1.0200
      9 O2        -43.2206   -48.4888    -0.3806 O.2        1  LIG1  -1.0200
     10 N2        -42.2120   -46.2776    -0.8088 N.2        1  LIG1  -1.0800
     11 C6        -42.9403   -45.7706     0.2684 C.ar       1  LIG1   0.3000
     12 C7        -42.5763   -46.1002     1.5689 C.ar       1  LIG1  -0.2600
     13 C8        -43.2943   -45.6004     2.6343 C.ar       1  LIG1  -0.0400
     14 C9        -44.3858   -44.7635     2.4068 C.ar       1  LIG1  -0.1700
     15 C10       -45.1596   -44.2242     3.5519 C.ar       1  LIG1  -0.0900
     16 C11       -45.8028   -42.9868     3.4646 C.ar       1  LIG1   0.1200
     17 N3        -46.4818   -42.5436     4.5088 N.ar       1  LIG1  -0.5100
     18 C12       -46.5562   -43.2507     5.6187 C.ar       1  LIG1   0.2500
     19 N4        -45.9643   -44.4221     5.7431 N.ar       1  LIG1  -0.5100
     20 C13       -45.2702   -44.9423     4.7455 C.ar       1  LIG1   0.1200
     21 C14       -44.7488   -44.4339     1.1019 C.ar       1  LIG1  -0.0500
     22 C15       -44.0252   -44.9319     0.0395 C.ar       1  LIG1  -0.1800
     23 C16       -39.4434   -48.4957    -0.7816 C.ar       1  LIG1  -0.0100
     24 C17       -38.3232   -48.9194    -0.0942 C.ar       1  LIG1  -0.0200
     25 Cl1       -36.7790   -48.9592    -0.8863 Cl         1  LIG1  -0.0500
     26 H1        -39.7797   -49.5995     2.8974 H          1  LIG1   0.1500
     27 H2        -41.7577   -48.8310     1.6550 H          1  LIG1   0.1600
     28 H3        -41.7306   -46.7485     1.7447 H          1  LIG1   0.1000
     29 H4        -43.0117   -45.8572     3.6446 H          1  LIG1   0.1100
     30 H5        -45.7459   -42.4017     2.5587 H          1  LIG1   0.1700
     31 H6        -47.1195   -42.8580     6.4525 H          1  LIG1   0.1900
     32 H7        -44.7878   -45.9024     4.8548 H          1  LIG1   0.1700
     33 H8        -45.5943   -43.7861     0.9235 H          1  LIG1   0.1100
     34 H9        -44.3062   -44.6769    -0.9717 H          1  LIG1   0.1200
     35 H10       -39.3576   -48.1853    -1.8125 H          1  LIG1   0.1600
@<TRIPOS>BOND
     1    1    2 3
     2    2    3 1
     3    3   24 ar
     4    3    4 ar
     5    4    5 ar
     6    4   26 1
     7    5    6 ar
     8    5   27 1
     9    6    7 1
    10    6   23 ar
    11    7    8 2
    12    7    9 2
    13    7   10 1
    14   10   11 1
    15   11   22 ar
    16   11   12 ar
    17   12   13 ar
    18   12   28 1
    19   13   14 ar
    20   13   29 1
    21   14   15 1
    22   14   21 ar
    23   15   20 ar
    24   15   16 ar
    25   16   17 ar
    26   16   30 1
    27   17   18 ar
    28   18   19 ar
    29   18   31 1
    30   19   20 ar
    31   20   32 1
    32   21   22 ar
    33   21   33 1
    34   22   34 1
    35   23   24 ar
    36   23   35 1
    37   24   25 1
##########                 Name:     ZINC000497371650
##########          Protonation:                 none
##########               SMILES:   CC1=CC=C(N2C(=O)C3=CC=CC=C3N=C2SCC2=N[N-]N=N2)C=C1
##########            Long Name:   NO_LONG_NAME
##########          FlexRecCode: 1
##########               Number:                68224
##########   Ligand Source File: /bks/ex4/3D/FE/ADMM/FEADMM.xaf.db2.gz
##########                 Rank:                    1
##########               Setnum:                  114
##########             Matchnum:                    1
##########                Cloud:                    1
##########        Electrostatic:           -64.897041
##########                 Gist:             0.000000
##########        Van der Waals:           -33.409233
##########  Ligand Polar Desolv:            28.687712
########## Ligand Apolar Desolv:            -6.872152
##########      Internal Energy:             0.000000
##########      Receptor Energy:             0.000000
########## Receptor Desolvation:             0.000000
########## Receptor Hydrophobic:             0.000000
##########         Total Energy:           -76.490715
##########        Ligand Charge:            -1.000000
##########            Arbitrary:    +999.9990
##########        Ligand Energy:             0.000000

@<TRIPOS>MOLECULE
 ZINC000497371650      none
   38    41    -1     0     0



@<TRIPOS>ATOM
      1 C1        -48.2521   -43.7738     5.1843 C.3        1  LIG1  -0.1200
      2 C2        -47.1912   -43.5256     4.1432 C.ar       1  LIG1  -0.0700
      3 C3        -45.9655   -44.1582     4.2427 C.ar       1  LIG1  -0.1100
      4 C4        -44.9913   -43.9332     3.2900 C.ar       1  LIG1  -0.0800
      5 C5        -45.2436   -43.0707     2.2313 C.ar       1  LIG1   0.0900
      6 N1        -44.2577   -42.8408     1.2631 N.am       1  LIG1  -0.4900
      7 C6        -43.3688   -41.8353     1.4358 C.2        1  LIG1   0.5600
      8 O1        -43.4076   -41.1213     2.4209 O.2        1  LIG1  -0.5000
      9 C7        -42.3550   -41.6369     0.3913 C.ar       1  LIG1  -0.2100
     10 C8        -41.3969   -40.6283     0.4797 C.ar       1  LIG1  -0.0400
     11 C9        -40.4674   -40.4842    -0.5266 C.ar       1  LIG1  -0.1500
     12 C10       -40.4779   -41.3335    -1.6257 C.ar       1  LIG1  -0.0700
     13 C11       -41.4148   -42.3360    -1.7336 C.ar       1  LIG1  -0.1200
     14 C12       -42.3685   -42.5034    -0.7258 C.ar       1  LIG1   0.1800
     15 N2        -43.3065   -43.4772    -0.7936 N.2        1  LIG1  -0.5300
     16 C13       -44.1975   -43.6379     0.1534 C.2        1  LIG1   0.3700
     17 S1        -45.3812   -44.9318    -0.0172 S.3        1  LIG1   0.0300
     18 C14       -44.4983   -46.2768     0.8121 C.3        1  LIG1   0.0300
     19 C15       -43.4835   -46.8687    -0.1318 C.2        1  LIG1   0.0500
     20 N3        -43.6821   -47.8651    -0.9762 N.2        1  LIG1  -0.3700
     21 N4        -42.5744   -48.0734    -1.6022 N.2        1  LIG1  -0.1900
     22 N5        -41.6909   -47.2390    -1.1756 N.2        1  LIG1  -0.1900
     23 N6        -42.2275   -46.4861    -0.2767 N.2        1  LIG1  -0.3700
     24 C16       -46.4753   -42.4371     2.1342 C.ar       1  LIG1  -0.0800
     25 C17       -47.4473   -42.6703     3.0873 C.ar       1  LIG1  -0.1100
     26 H1        -47.8717   -44.4696     5.9321 H          1  LIG1   0.0800
     27 H2        -48.5164   -42.8321     5.6655 H          1  LIG1   0.0700
     28 H3        -49.1356   -44.1992     4.7084 H          1  LIG1   0.0700
     29 H4        -45.7697   -44.8286     5.0665 H          1  LIG1   0.1300
     30 H5        -44.0341   -44.4272     3.3684 H          1  LIG1   0.1300
     31 H6        -41.3836   -39.9642     1.3312 H          1  LIG1   0.1300
     32 H7        -39.7239   -39.7037    -0.4606 H          1  LIG1   0.1300
     33 H8        -39.7419   -41.2054    -2.4056 H          1  LIG1   0.1300
     34 H9        -41.4131   -42.9898    -2.5930 H          1  LIG1   0.1400
     35 H10       -43.9905   -45.8882     1.6947 H          1  LIG1   0.1100
     36 H11       -45.2087   -47.0474     1.1117 H          1  LIG1   0.1100
     37 H12       -46.6745   -41.7658     1.3119 H          1  LIG1   0.1300
     38 H13       -48.4056   -42.1778     3.0123 H          1  LIG1   0.1300
@<TRIPOS>BOND
     1    1    2 1
     2    1   26 1
     3    1   27 1
     4    1   28 1
     5    2   25 ar
     6    2    3 ar
     7    3    4 ar
     8    3   29 1
     9    4    5 ar
    10    4   30 1
    11    5    6 1
    12    5   24 ar
    13    6   16 1
    14    6    7 am
    15    7    8 2
    16    7    9 1
    17    9   14 ar
    18    9   10 ar
    19   10   11 ar
    20   10   31 1
    21   11   12 ar
    22   11   32 1
    23   12   13 ar
    24   12   33 1
    25   13   14 ar
    26   13   34 1
    27   14   15 1
    28   15   16 2
    29   16   17 1
    30   17   18 1
    31   18   19 1
    32   18   35 1
    33   18   36 1
    34   19   23 1
    35   19   20 2
    36   20   21 1
    37   21   22 1
    38   22   23 2
    39   24   25 ar
    40   24   37 1
    41   25   38 1
##########                 Name:     ZINC000455934186
##########          Protonation:                 none
##########               SMILES:   CC1=NOC(C)=C1CC(=O)N[C@@H](CC1=CC=CC(Cl)=C1)C(=O)[O-]
##########            Long Name:   NO_LONG_NAME
##########          FlexRecCode: 1
##########               Number:                42970
##########   Ligand Source File: /bks/ex5/3D/EE/ADRM/EEADRM.xal.db2.gz
##########                 Rank:                    1
##########               Setnum:                   59
##########             Matchnum:                    1
##########                Cloud:                    1
##########        Electrostatic:           -71.560638
##########                 Gist:             0.000000
##########        Van der Waals:           -25.034250
##########  Ligand Polar Desolv:            37.516701
########## Ligand Apolar Desolv:            -6.660940
##########      Internal Energy:             0.000000
##########      Receptor Energy:             0.000000
########## Receptor Desolvation:             0.000000
########## Receptor Hydrophobic:             0.000000
##########         Total Energy:           -65.739128
##########        Ligand Charge:            -1.000000
##########            Arbitrary:    +999.9990
##########        Ligand Energy:             0.000000

@<TRIPOS>MOLECULE
 ZINC000823568339      none
   51    52    -1     0     0



@<TRIPOS>ATOM
      1 C1        -40.9812   -38.5094     2.4911 C.3        1  LIG1  -0.1700
      2 C2        -41.6852   -39.2837     1.4067 C.2        1  LIG1   0.5200
      3 O1        -42.7845   -39.7529     1.6128 O.2        1  LIG1  -0.5500
      4 N1        -41.0935   -39.4547     0.2080 N.am       1  LIG1  -0.7200
      5 C3        -41.7780   -40.2074    -0.8462 C.3        1  LIG1   0.2000
      6 H1        -42.8547   -40.0649    -0.7537 H          1  LIG1   0.1100
      7 C4        -41.4466   -41.6947    -0.7083 C.3        1  LIG1  -0.1200
      8 C5        -42.3035   -42.3021     0.3725 C.2        1  LIG1   0.4600
      9 O2        -41.7865   -42.8120     1.3382 O.2        1  LIG1  -0.5000
     10 O3        -43.6410   -42.2766     0.2622 O.3        1  LIG1  -0.3500
     11 C6        -44.4030   -42.8802     1.3407 C.3        1  LIG1   0.1000
     12 H2        -43.8248   -43.6905     1.7849 H          1  LIG1   0.0900
     13 C7        -44.7030   -41.8242     2.4064 C.3        1  LIG1  -0.1300
     14 C8        -45.5060   -42.4604     3.5429 C.3        1  LIG1  -0.1100
     15 C9        -46.8204   -43.0151     2.9903 C.3        1  LIG1  -0.1200
     16 C10       -46.5204   -44.0711     1.9247 C.3        1  LIG1  -0.1100
     17 C11       -45.7175   -43.4350     0.7882 C.3        1  LIG1  -0.0900
     18 H3        -46.2956   -42.6247     0.3441 H          1  LIG1   0.0800
     19 C12       -45.4174   -44.4910    -0.2776 C.3        1  LIG1   0.1500
     20 N2        -44.2810   -45.3095     0.1524 N.am       1  LIG1  -0.7800
     21 C13       -43.1624   -45.3569    -0.5981 C.2        1  LIG1   0.6600
     22 O4        -43.0961   -44.7166    -1.6381 O.co2      1  LIG1  -0.7300
     23 O5        -42.2136   -46.0402    -0.2390 O.co2      1  LIG1  -0.7300
     24 C14       -41.3200   -39.7135    -2.1943 C.ar       1  LIG1  -0.1000
     25 C15       -41.9894   -38.6748    -2.8139 C.ar       1  LIG1  -0.1000
     26 C16       -41.5693   -38.2219    -4.0504 C.ar       1  LIG1  -0.1200
     27 C17       -40.4799   -38.8071    -4.6675 C.ar       1  LIG1  -0.1200
     28 C18       -39.8094   -39.8453    -4.0473 C.ar       1  LIG1  -0.1200
     29 C19       -40.2269   -40.2954    -2.8088 C.ar       1  LIG1  -0.1000
     30 H4        -40.0131   -38.1685     2.1240 H          1  LIG1   0.1000
     31 H5        -41.5864   -37.6482     2.7742 H          1  LIG1   0.0800
     32 H6        -40.8347   -39.1518     3.3595 H          1  LIG1   0.0900
     33 H7        -40.2143   -39.0794     0.0431 H          1  LIG1   0.4000
     34 H8        -41.6423   -42.1997    -1.6540 H          1  LIG1   0.1200
     35 H9        -40.3950   -41.8097    -0.4457 H          1  LIG1   0.1200
     36 H10       -43.7666   -41.4290     2.8001 H          1  LIG1   0.0700
     37 H11       -45.2813   -41.0139     1.9624 H          1  LIG1   0.0700
     38 H12       -44.9278   -43.2707     3.9870 H          1  LIG1   0.0600
     39 H13       -45.7197   -41.7081     4.3022 H          1  LIG1   0.0700
     40 H14       -47.3924   -43.4683     3.8000 H          1  LIG1   0.0600
     41 H15       -47.3986   -42.2049     2.5462 H          1  LIG1   0.0600
     42 H16       -45.9421   -44.8814     2.3687 H          1  LIG1   0.0700
     43 H17       -47.4568   -44.4663     1.5310 H          1  LIG1   0.0800
     44 H18       -46.2917   -45.1269    -0.4153 H          1  LIG1   0.0500
     45 H19       -45.1745   -43.9982    -1.2191 H          1  LIG1   0.0400
     46 H20       -44.3336   -45.8173     0.9772 H          1  LIG1   0.3700
     47 H21       -42.8410   -38.2176    -2.3320 H          1  LIG1   0.1200
     48 H22       -42.0927   -37.4108    -4.5349 H          1  LIG1   0.1200
     49 H23       -40.1515   -38.4538    -5.6336 H          1  LIG1   0.1200
     50 H24       -38.9581   -40.3028    -4.5293 H          1  LIG1   0.1200
     51 H25       -39.7034   -41.1065    -2.3243 H          1  LIG1   0.1200
@<TRIPOS>BOND
     1    1    2 1
     2    1   30 1
     3    1   31 1
     4    1   32 1
     5    2    3 2
     6    2    4 am
     7    4    5 1
     8    4   33 1
     9    5    6 1
    10    5    7 1
    11    5   24 1
    12    7    8 1
    13    7   34 1
    14    7   35 1
    15    8    9 2
    16    8   10 1
    17   10   11 1
    18   11   12 1
    19   11   17 1
    20   11   13 1
    21   13   14 1
    22   13   36 1
    23   13   37 1
    24   14   15 1
    25   14   38 1
    26   14   39 1
    27   15   16 1
    28   15   40 1
    29   15   41 1
    30   16   17 1
    31   16   42 1
    32   16   43 1
    33   17   18 1
    34   17   19 1
    35   19   20 1
    36   19   44 1
    37   19   45 1
    38   20   21 am
    39   20   46 1
    40   21   22 2
    41   21   23 1
    42   24   29 ar
    43   24   25 ar
    44   25   26 ar
    45   25   47 1
    46   26   27 ar
    47   26   48 1
    48   27   28 ar
    49   27   49 1
    50   28   29 ar
    51   28   50 1
    52   29   51 1
##########                 Name:     ZINC000354919126
##########          Protonation:                 none
##########               SMILES:   CCC1=CC=C(C(=O)NC2=CC=CC(C3=NNN=N3)=C2)C(C)=N1
##########            Long Name:   NO_LONG_NAME
##########          FlexRecCode: 1
##########               Number:                 3948
##########   Ligand Source File: /bks/ex1/3D/DE/ADRM/DEADRM.xcn.db2.gz
##########                 Rank:                    1
##########               Setnum:                   31
##########             Matchnum:                    1
##########                Cloud:                    1
##########        Electrostatic:           -67.935638
##########                 Gist:             0.000000
##########        Van der Waals:           -27.939730
##########  Ligand Polar Desolv:            30.648207
########## Ligand Apolar Desolv:            -3.976995
##########      Internal Energy:             0.000000
##########      Receptor Energy:             0.000000
########## Receptor Desolvation:             0.000000
########## Receptor Hydrophobic:             0.000000
##########         Total Energy:           -69.204155
##########        Ligand Charge:            -1.000000
##########            Arbitrary:    +999.9990
##########        Ligand Energy:             0.000000

@<TRIPOS>MOLECULE
 ZINC000354919126      none
   38    40    -1     0     0



@<TRIPOS>ATOM
      1 C1        -42.8380   -34.5368     2.9106 C.3        1  LIG1  -0.1400
      2 C2        -41.8990   -35.5820     3.5162 C.3        1  LIG1  -0.0800
      3 C3        -42.3575   -36.9608     3.1165 C.ar       1  LIG1   0.1600
      4 C4        -43.2629   -37.6349     3.9157 C.ar       1  LIG1  -0.1900
      5 C5        -43.6823   -38.9007     3.5454 C.ar       1  LIG1  -0.0300
      6 C6        -43.1676   -39.4514     2.3656 C.ar       1  LIG1  -0.2000
      7 C7        -43.5813   -40.7994     1.9224 C.2        1  LIG1   0.5600
      8 O1        -42.7509   -41.6771     1.7899 O.2        1  LIG1  -0.5100
      9 N1        -44.8793   -41.0553     1.6654 N.am       1  LIG1  -0.6600
     10 C8        -45.2709   -42.3309     1.2460 C.ar       1  LIG1   0.1300
     11 C9        -46.5393   -42.8057     1.5567 C.ar       1  LIG1  -0.1300
     12 C10       -46.9307   -44.0656     1.1439 C.ar       1  LIG1  -0.1000
     13 C11       -46.0640   -44.8599     0.4209 C.ar       1  LIG1  -0.1100
     14 C12       -44.7882   -44.3921     0.1043 C.ar       1  LIG1   0.0600
     15 C13       -43.8570   -45.2425    -0.6713 C.2        1  LIG1   0.0800
     16 N2        -42.6130   -44.9332    -1.0403 N.2        1  LIG1  -0.3700
     17 N3        -42.1428   -45.9377    -1.6973 N.2        1  LIG1  -0.1900
     18 N4        -43.0362   -46.8621    -1.7565 N.2        1  LIG1  -0.1900
     19 N5        -44.0950   -46.4709    -1.1335 N.2        1  LIG1  -0.3700
     20 C14       -44.3954   -43.1198     0.5149 C.ar       1  LIG1  -0.1200
     21 C15       -42.2572   -38.7059     1.6148 C.ar       1  LIG1   0.2000
     22 C16       -41.6916   -39.2801     0.3416 C.3        1  LIG1  -0.1100
     23 N6        -41.8928   -37.5029     2.0068 N.ar       1  LIG1  -0.4900
     24 H1        -42.5062   -33.5395     3.1998 H          1  LIG1   0.0700
     25 H2        -42.8253   -34.6230     1.8242 H          1  LIG1   0.0600
     26 H3        -43.8511   -34.7029     3.2766 H          1  LIG1   0.0500
     27 H4        -40.8858   -35.4158     3.1502 H          1  LIG1   0.0800
     28 H5        -41.9115   -35.4957     4.6026 H          1  LIG1   0.0900
     29 H6        -43.6385   -37.1784     4.8196 H          1  LIG1   0.1400
     30 H7        -44.3881   -39.4497     4.1510 H          1  LIG1   0.1400
     31 H8        -45.5421   -40.3549     1.7711 H          1  LIG1   0.4100
     32 H9        -47.2213   -42.1887     2.1230 H          1  LIG1   0.1300
     33 H10       -47.9177   -44.4296     1.3883 H          1  LIG1   0.1200
     34 H11       -46.3733   -45.8438     0.1004 H          1  LIG1   0.1300
     35 H12       -43.4092   -42.7527     0.2722 H          1  LIG1   0.1300
     36 H13       -41.0037   -38.5629    -0.1063 H          1  LIG1   0.0800
     37 H14       -41.1585   -40.2041     0.5650 H          1  LIG1   0.0700
     38 H15       -42.5036   -39.4884    -0.3552 H          1  LIG1   0.1000
@<TRIPOS>BOND
     1    1    2 1
     2    1   24 1
     3    1   25 1
     4    1   26 1
     5    2    3 1
     6    2   27 1
     7    2   28 1
     8    3   23 ar
     9    3    4 ar
    10    4    5 ar
    11    4   29 1
    12    5    6 ar
    13    5   30 1
    14    6    7 1
    15    6   21 ar
    16    7    8 2
    17    7    9 am
    18    9   10 1
    19    9   31 1
    20   10   20 ar
    21   10   11 ar
    22   11   12 ar
    23   11   32 1
    24   12   13 ar
    25   12   33 1
    26   13   14 ar
    27   13   34 1
    28   14   15 1
    29   14   20 ar
    30   15   19 1
    31   15   16 2
    32   16   17 1
    33   17   18 2
    34   18   19 1
    35   20   35 1
    36   21   22 1
    37   21   23 ar
    38   22   36 1
    39   22   37 1
    40   22   38 1
##########                 Name:     ZINC001604270680
##########          Protonation:                 none
##########               SMILES:   C[C@H](NC(=O)CC1(C)CCCC1)[C@@H](CC1=CC=CC=C1)C(=O)[O-]
##########            Long Name:   NO_LONG_NAME
##########          FlexRecCode: 1
##########               Number:                53555
##########   Ligand Source File: /bks/ex6/3D/DG/ADRM/DGADRM.xac.db2.gz
##########                 Rank:                    1
##########               Setnum:                   77
##########             Matchnum:                    1
##########                Cloud:                    1
##########        Electrostatic:           -59.859268
##########                 Gist:             0.000000
##########        Van der Waals:           -28.267181
##########  Ligand Polar Desolv:            28.651026
########## Ligand Apolar Desolv:            -7.914748
##########      Internal Energy:             0.000000
##########      Receptor Energy:             0.000000
########## Receptor Desolvation:             0.000000
########## Receptor Hydrophobic:             0.000000
##########         Total Energy:           -67.390167
##########        Ligand Charge:            -1.000000
##########            Arbitrary:    +999.9990
##########        Ligand Energy:             0.000000

@<TRIPOS>MOLECULE
 ZINC001573351934      none
   41    42    -1     0     0



@<TRIPOS>ATOM
      1 C1        -40.5890   -43.0576    -4.0628 C.2        1  LIG1  -0.1900
      2 C2        -40.8923   -41.7639    -4.0634 C.2        1  LIG1  -0.1200
      3 C3        -41.4609   -41.1412    -2.8579 C.2        1  LIG1  -0.1500
      4 C4        -41.0004   -41.4757    -1.6573 C.2        1  LIG1  -0.1000
      5 C5        -41.5828   -40.8378    -0.4223 C.3        1  LIG1  -0.1200
      6 C6        -42.1707   -41.9048     0.4647 C.2        1  LIG1   0.5200
      7 O1        -41.7500   -42.0559     1.5921 O.2        1  LIG1  -0.5400
      8 N1        -43.1641   -42.6912     0.0052 N.am       1  LIG1  -0.7000
      9 C7        -43.7355   -43.7286     0.8674 C.3        1  LIG1   0.2100
     10 H1        -42.9641   -44.1115     1.5355 H          1  LIG1   0.1000
     11 C8        -44.2744   -44.8704     0.0032 C.3        1  LIG1  -0.1900
     12 C9        -43.1344   -45.7597    -0.4218 C.2        1  LIG1   0.4900
     13 O2        -43.1306   -46.9378    -0.1083 O.co2      1  LIG1  -0.6800
     14 O3        -42.2157   -45.3009    -1.0792 O.co2      1  LIG1  -0.7000
     15 C10       -44.8595   -43.1417     1.6820 C.ar       1  LIG1  -0.0600
     16 C11       -45.1498   -43.6547     2.9574 C.ar       1  LIG1  -0.0400
     17 C12       -44.4085   -44.7167     3.5032 C.ar       1  LIG1  -0.0900
     18 C13       -44.7182   -45.1874     4.7419 C.ar       1  LIG1  -0.1300
     19 C14       -45.7618   -44.6323     5.4804 C.ar       1  LIG1  -0.1200
     20 C15       -46.5015   -43.6033     4.9842 C.ar       1  LIG1  -0.1200
     21 C16       -46.2108   -43.0898     3.7086 C.ar       1  LIG1  -0.0500
     22 C17       -46.9519   -42.0281     3.1631 C.ar       1  LIG1  -0.1200
     23 C18       -46.6413   -41.5563     1.9245 C.ar       1  LIG1  -0.1100
     24 C19       -45.5951   -42.1082     1.1882 C.ar       1  LIG1  -0.1200
     25 H2        -40.7599   -43.6519    -3.1775 H          1  LIG1   0.1000
     26 H3        -40.1758   -43.5158    -4.9493 H          1  LIG1   0.1000
     27 H4        -40.7214   -41.1696    -4.9489 H          1  LIG1   0.1100
     28 H5        -42.2524   -40.4121    -2.9487 H          1  LIG1   0.1100
     29 H6        -40.2088   -42.2048    -1.5663 H          1  LIG1   0.1200
     30 H7        -40.7979   -40.3082     0.1176 H          1  LIG1   0.1000
     31 H8        -42.3638   -40.1341    -0.7108 H          1  LIG1   0.1000
     32 H9        -43.5007   -42.5703    -0.8966 H          1  LIG1   0.4000
     33 H10       -44.9944   -45.4526     0.5781 H          1  LIG1   0.0700
     34 H11       -44.7625   -44.4584    -0.8800 H          1  LIG1   0.0600
     35 H12       -43.5975   -45.1572     2.9421 H          1  LIG1   0.1300
     36 H13       -44.1469   -46.0036     5.1589 H          1  LIG1   0.1200
     37 H14       -45.9870   -45.0247     6.4610 H          1  LIG1   0.1200
     38 H15       -47.3078   -43.1837     5.5676 H          1  LIG1   0.1200
     39 H16       -47.7639   -41.5887     3.7235 H          1  LIG1   0.1200
     40 H17       -47.2127   -40.7404     1.5075 H          1  LIG1   0.1200
     41 H18       -45.3693   -41.7152     0.2081 H          1  LIG1   0.1200
@<TRIPOS>BOND
     1    1    2 2
     2    1   25 1
     3    1   26 1
     4    2    3 1
     5    2   27 1
     6    3    4 2
     7    3   28 1
     8    4    5 1
     9    4   29 1
    10    5    6 1
    11    5   30 1
    12    5   31 1
    13    6    7 2
    14    6    8 am
    15    8    9 1
    16    8   32 1
    17    9   10 1
    18    9   11 1
    19    9   15 1
    20   11   12 1
    21   11   33 1
    22   11   34 1
    23   12   13 2
    24   12   14 1
    25   15   24 ar
    26   15   16 ar
    27   16   21 ar
    28   16   17 ar
    29   17   18 ar
    30   17   35 1
    31   18   19 ar
    32   18   36 1
    33   19   20 ar
    34   19   37 1
    35   20   21 ar
    36   20   38 1
    37   21   22 ar
    38   22   23 ar
    39   22   39 1
    40   23   24 ar
    41   23   40 1
    42   24   41 1
##########                 Name:     ZINC000431975755
##########          Protonation:                 none
##########               SMILES:   O=C([O-])CC1=CC=C(NC(=O)C2=C3C=C(F)C=CC3=NC(C3CC3)=C2)C=C1
##########            Long Name:   NO_LONG_NAME
##########          FlexRecCode: 1
##########               Number:                18620
##########   Ligand Source File: /bks/ex4/3D/FI/ADRM/FIADRM.xab.db2.gz
##########                 Rank:                    1
##########               Setnum:                   56
##########             Matchnum:                    1
##########                Cloud:                    1
##########        Electrostatic:           -68.349068
##########                 Gist:             0.000000
##########        Van der Waals:           -28.395189
##########  Ligand Polar Desolv:            36.039928
########## Ligand Apolar Desolv:            -7.352333
##########      Internal Energy:             0.000000
##########      Receptor Energy:             0.000000
########## Receptor Desolvation:             0.000000
########## Receptor Hydrophobic:             0.000000
##########         Total Energy:           -68.056656
##########        Ligand Charge:            -1.000000
##########            Arbitrary:    +999.9990
##########        Ligand Energy:             0.000000

@<TRIPOS>MOLECULE
 ZINC000431975755      none
   43    46    -1     0     0



@<TRIPOS>ATOM
      1 O1        -41.7433   -46.8760    -0.3771 O.co2      1  LIG1  -0.6900
      2 C1        -42.6144   -46.1797    -0.8700 C.2        1  LIG1   0.5000
      3 O2        -42.3505   -45.4454    -1.8067 O.co2      1  LIG1  -0.7000
      4 C2        -44.0186   -46.2315    -0.3252 C.3        1  LIG1  -0.1600
      5 C3        -44.4195   -44.8626     0.1612 C.ar       1  LIG1  -0.0200
      6 C4        -44.1665   -44.4940     1.4697 C.ar       1  LIG1  -0.1000
      7 C5        -44.5322   -43.2402     1.9186 C.ar       1  LIG1  -0.1300
      8 C6        -45.1549   -42.3491     1.0539 C.ar       1  LIG1   0.1000
      9 N1        -45.5261   -41.0787     1.5049 N.am       1  LIG1  -0.6500
     10 C7        -44.8159   -40.4749     2.4784 C.2        1  LIG1   0.5600
     11 O3        -43.8525   -41.0350     2.9643 O.2        1  LIG1  -0.5000
     12 C8        -45.2084   -39.1319     2.9553 C.ar       1  LIG1  -0.0600
     13 C9        -44.2424   -38.2180     3.4482 C.ar       1  LIG1  -0.0500
     14 C10       -42.8837   -38.5522     3.5012 C.ar       1  LIG1  -0.1400
     15 C11       -41.9840   -37.6455     3.9819 C.ar       1  LIG1   0.1000
     16 F1        -40.6732   -37.9684     4.0329 F          1  LIG1  -0.1300
     17 C12       -42.4023   -36.3882     4.4212 C.ar       1  LIG1  -0.1300
     18 C13       -43.7146   -36.0330     4.3831 C.ar       1  LIG1  -0.0600
     19 C14       -44.6708   -36.9426     3.8936 C.ar       1  LIG1   0.1200
     20 N2        -45.9651   -36.6183     3.8452 N.ar       1  LIG1  -0.4500
     21 C15       -46.8697   -37.4508     3.3928 C.ar       1  LIG1   0.1900
     22 C16       -48.3134   -37.0190     3.3661 C.3        1  LIG1  -0.1100
     23 C17       -48.6697   -35.7018     4.0580 C.3        1  LIG1  -0.1700
     24 C18       -48.6669   -35.7870     2.5304 C.3        1  LIG1  -0.1600
     25 C19       -46.5353   -38.7206     2.9301 C.ar       1  LIG1  -0.1200
     26 C20       -45.4076   -42.7225    -0.2598 C.ar       1  LIG1  -0.1100
     27 C21       -45.0346   -43.9759    -0.7037 C.ar       1  LIG1  -0.1000
     28 H1        -44.7018   -46.5522    -1.1117 H          1  LIG1   0.0700
     29 H2        -44.0610   -46.9383     0.5033 H          1  LIG1   0.0700
     30 H3        -43.6825   -45.1875     2.1415 H          1  LIG1   0.1200
     31 H4        -44.3346   -42.9530     2.9407 H          1  LIG1   0.1200
     32 H5        -46.2948   -40.6318     1.1172 H          1  LIG1   0.4100
     33 H6        -42.5495   -39.5222     3.1640 H          1  LIG1   0.1800
     34 H7        -41.6725   -35.6865     4.7974 H          1  LIG1   0.1500
     35 H8        -44.0220   -35.0567     4.7273 H          1  LIG1   0.1500
     36 H9        -49.0460   -37.8248     3.4094 H          1  LIG1   0.1300
     37 H10       -49.6369   -35.6409     4.5569 H          1  LIG1   0.1100
     38 H11       -47.8601   -35.1475     4.5327 H          1  LIG1   0.1000
     39 H12       -47.8553   -35.2889     2.0000 H          1  LIG1   0.1000
     40 H13       -49.6323   -35.7822     2.0242 H          1  LIG1   0.1000
     41 H14       -47.3034   -39.3851     2.5628 H          1  LIG1   0.1500
     42 H15       -45.8920   -42.0321    -0.9345 H          1  LIG1   0.1300
     43 H16       -45.2308   -44.2670    -1.7250 H          1  LIG1   0.1200
@<TRIPOS>BOND
     1    1    2 2
     2    2    3 1
     3    2    4 1
     4    4    5 1
     5    4   28 1
     6    4   29 1
     7    5   27 ar
     8    5    6 ar
     9    6    7 ar
    10    6   30 1
    11    7    8 ar
    12    7   31 1
    13    8    9 1
    14    8   26 ar
    15    9   10 am
    16    9   32 1
    17   10   11 2
    18   10   12 1
    19   12   25 ar
    20   12   13 ar
    21   13   19 ar
    22   13   14 ar
    23   14   15 ar
    24   14   33 1
    25   15   16 1
    26   15   17 ar
    27   17   18 ar
    28   17   34 1
    29   18   19 ar
    30   18   35 1
    31   19   20 ar
    32   20   21 ar
    33   21   22 1
    34   21   25 ar
    35   22   24 1
    36   22   23 1
    37   22   36 1
    38   23   24 1
    39   23   37 1
    40   23   38 1
    41   24   39 1
    42   24   40 1
    43   25   41 1
    44   26   27 ar
    45   26   42 1
    46   27   43 1
##########                 Name:     ZINC000193975690
##########          Protonation:                 none
##########               SMILES:   CN(C)C1=NOC(C[N-]S(=O)(=O)C2=CC=C([N+](=O)[O-])C=C2F)=N1
##########            Long Name:   NO_LONG_NAME
##########          FlexRecCode: 1
##########               Number:                22421
##########   Ligand Source File: /bks/ex5/3D/EC/BDRM/ECBDRM.xab.db2.gz
##########                 Rank:                    1
##########               Setnum:                   73
##########             Matchnum:                    1
##########                Cloud:                    1
##########        Electrostatic:           -69.371216
##########                 Gist:             0.000000
##########        Van der Waals:           -22.576773
##########  Ligand Polar Desolv:            25.240801
########## Ligand Apolar Desolv:            -1.567397
##########      Internal Energy:             0.000000
##########      Receptor Energy:             0.000000
########## Receptor Desolvation:             0.000000
########## Receptor Hydrophobic:             0.000000
##########         Total Energy:           -68.274590
##########        Ligand Charge:            -1.000000
##########            Arbitrary:    +999.9990
##########        Ligand Energy:             0.000000

@<TRIPOS>MOLECULE
 ZINC000461117786      none
   40    42    -1     0     0



@<TRIPOS>ATOM
      1 O1        -41.9781   -48.8418    -3.0333 O.2        1  LIG1  -1.0100
      2 S1        -41.9924   -48.4587    -1.6650 S.o2       1  LIG1   2.5600
      3 O2        -42.9136   -49.0383    -0.7514 O.2        1  LIG1  -1.0000
      4 C1        -40.3134   -48.4853    -0.9789 C.3        1  LIG1  -0.6000
      5 C2        -39.9280   -49.9242    -0.6296 C.3        1  LIG1  -0.0800
      6 C3        -38.5332   -49.9465    -0.0596 C.ar       1  LIG1  -0.0400
      7 C4        -37.4460   -50.0981    -0.8991 C.ar       1  LIG1  -0.1100
      8 C5        -36.1661   -50.1185    -0.3763 C.ar       1  LIG1  -0.1000
      9 C6        -35.9735   -49.9867     0.9862 C.ar       1  LIG1  -0.1200
     10 C7        -37.0604   -49.8350     1.8267 C.ar       1  LIG1  -0.0900
     11 C8        -38.3405   -49.8093     1.3036 C.ar       1  LIG1  -0.0900
     12 Br1       -39.8279   -49.6017     2.4527 Br         1  LIG1  -0.0400
     13 N1        -42.4012   -46.8541    -1.6944 N.2        1  LIG1  -1.0500
     14 C9        -43.0251   -46.2791    -0.6016 C.ar       1  LIG1   0.6000
     15 N2        -42.4063   -46.2851     0.5703 N.ar       1  LIG1  -0.6100
     16 C10       -42.9694   -45.7461     1.6371 C.ar       1  LIG1   0.2100
     17 C11       -44.2341   -45.1649     1.5160 C.ar       1  LIG1  -0.2900
     18 C12       -44.9031   -44.5478     2.6878 C.ar       1  LIG1   0.0200
     19 C13       -45.7865   -43.4850     2.5092 C.ar       1  LIG1  -0.1400
     20 C14       -46.4064   -42.9151     3.6027 C.ar       1  LIG1  -0.1100
     21 C15       -46.1514   -43.3971     4.8746 C.ar       1  LIG1  -0.1500
     22 C16       -45.2758   -44.4515     5.0573 C.ar       1  LIG1  -0.1100
     23 C17       -44.6548   -45.0328     3.9704 C.ar       1  LIG1  -0.1300
     24 C18       -44.8530   -45.1791     0.2634 C.ar       1  LIG1   0.2000
     25 N3        -44.2227   -45.7330    -0.7572 N.ar       1  LIG1  -0.5500
     26 H1        -39.6136   -48.0903    -1.7153 H          1  LIG1   0.1200
     27 H2        -40.2788   -47.8713    -0.0790 H          1  LIG1   0.1300
     28 H3        -40.6278   -50.3192     0.1069 H          1  LIG1   0.0900
     29 H4        -39.9627   -50.5382    -1.5296 H          1  LIG1   0.0900
     30 H5        -37.5960   -50.2011    -1.9637 H          1  LIG1   0.1300
     31 H6        -35.3168   -50.2377    -1.0325 H          1  LIG1   0.1300
     32 H7        -34.9736   -50.0027     1.3941 H          1  LIG1   0.1300
     33 H8        -36.9099   -49.7324     2.8912 H          1  LIG1   0.1300
     34 H9        -42.4595   -45.7548     2.5892 H          1  LIG1   0.1500
     35 H10       -45.9855   -43.1078     1.5170 H          1  LIG1   0.1200
     36 H11       -47.0913   -42.0915     3.4655 H          1  LIG1   0.1200
     37 H12       -46.6380   -42.9471     5.7273 H          1  LIG1   0.1100
     38 H13       -45.0807   -44.8235     6.0522 H          1  LIG1   0.1200
     39 H14       -43.9710   -45.8562     4.1146 H          1  LIG1   0.1200
     40 H15       -45.8307   -44.7401     0.1305 H          1  LIG1   0.1500
@<TRIPOS>BOND
     1    1    2 2
     2    2    3 2
     3    2    4 1
     4    2   13 1
     5    4    5 1
     6    4   26 1
     7    4   27 1
     8    5    6 1
     9    5   28 1
    10    5   29 1
    11    6   11 ar
    12    6    7 ar
    13    7    8 ar
    14    7   30 1
    15    8    9 ar
    16    8   31 1
    17    9   10 ar
    18    9   32 1
    19   10   11 ar
    20   10   33 1
    21   11   12 1
    22   13   14 1
    23   14   25 ar
    24   14   15 ar
    25   15   16 ar
    26   16   17 ar
    27   16   34 1
    28   17   18 1
    29   17   24 ar
    30   18   23 ar
    31   18   19 ar
    32   19   20 ar
    33   19   35 1
    34   20   21 ar
    35   20   36 1
    36   21   22 ar
    37   21   37 1
    38   22   23 ar
    39   22   38 1
    40   23   39 1
    41   24   25 ar
    42   24   40 1
##########                 Name:     ZINC000548026888
##########          Protonation:                 none
##########               SMILES:   O=C([O-])C1=CC=C([C@H]2CCCN2S(=O)(=O)C2=CC=CC=C2C2=CC=NO2)S1
##########            Long Name:   NO_LONG_NAME
##########          FlexRecCode: 1
##########               Number:                46973
##########   Ligand Source File: /bks/ex2/3D/HH/ADRM/HHADRM.xaf.db2.gz
##########                 Rank:                    1
##########               Setnum:                   26
##########             Matchnum:                    1
##########                Cloud:                    1
##########        Electrostatic:           -73.294739
##########                 Gist:             0.000000
##########        Van der Waals:           -24.326422
##########  Ligand Polar Desolv:            37.545410
########## Ligand Apolar Desolv:            -6.242663
##########      Internal Energy:             0.000000
##########      Receptor Energy:             0.000000
########## Receptor Desolvation:             0.000000
########## Receptor Hydrophobic:             0.000000
##########         Total Energy:           -66.318420
##########        Ligand Charge:            -1.000000
##########            Arbitrary:    +999.9990
##########        Ligand Energy:             0.000000

@<TRIPOS>MOLECULE
 ZINC000548026888      none
   42    45    -1     0     0



@<TRIPOS>ATOM
      1 O1        -43.6908   -46.1439    -2.0642 O.co2      1  LIG1  -0.6800
      2 C1        -43.1525   -45.8592    -1.0012 C.2        1  LIG1   0.5400
      3 O2        -42.0191   -46.2579    -0.7625 O.co2      1  LIG1  -0.6900
      4 C2        -43.8392   -45.0634    -0.0500 C.2        1  LIG1  -0.2100
      5 C3        -43.3442   -44.6744     1.1664 C.2        1  LIG1  -0.1300
      6 C4        -44.2226   -43.9061     1.8889 C.2        1  LIG1  -0.1100
      7 C5        -45.3978   -43.6703     1.2905 C.2        1  LIG1  -0.3000
      8 C6        -46.5136   -42.8548     1.8911 C.3        1  LIG1   0.2300
      9 H1        -47.0870   -42.3718     1.0999 H          1  LIG1   0.0900
     10 C7        -47.4371   -43.7648     2.7280 C.3        1  LIG1  -0.1200
     11 C8        -47.7939   -42.8721     3.9459 C.3        1  LIG1  -0.1200
     12 C9        -46.4714   -42.0942     4.1593 C.3        1  LIG1   0.1000
     13 N1        -45.9584   -41.8390     2.7976 N.pl3      1  LIG1  -1.0000
     14 S1        -44.9279   -40.6159     2.3679 S.o2       1  LIG1   2.7000
     15 O3        -43.8068   -40.7123     3.2358 O.2        1  LIG1  -0.9500
     16 O4        -44.8205   -40.6606     0.9517 O.2        1  LIG1  -0.9400
     17 C10       -45.7301   -39.0966     2.7585 C.ar       1  LIG1  -0.6500
     18 C11       -47.1063   -39.0111     2.7181 C.ar       1  LIG1  -0.0100
     19 C12       -47.7378   -37.8187     3.0246 C.ar       1  LIG1  -0.1100
     20 C13       -46.9948   -36.7051     3.3728 C.ar       1  LIG1  -0.0500
     21 C14       -45.6176   -36.7771     3.4170 C.ar       1  LIG1  -0.1000
     22 C15       -44.9748   -37.9782     3.1152 C.ar       1  LIG1   0.0700
     23 C16       -43.4994   -38.0626     3.1606 C.2        1  LIG1  -0.0300
     24 C17       -42.6970   -37.8516     4.2486 C.2        1  LIG1  -0.2000
     25 C18       -41.3931   -38.0559     3.7522 C.2        1  LIG1  -0.0200
     26 N2        -41.5180   -38.3527     2.4898 N.2        1  LIG1  -0.3600
     27 O5        -42.6758   -38.3680     2.1420 O.3        1  LIG1   0.1600
     28 S2        -45.4602   -44.4109    -0.2454 S.3        1  LIG1   0.2000
     29 H2        -42.3609   -44.9455     1.5217 H          1  LIG1   0.1400
     30 H3        -43.9839   -43.5197     2.8688 H          1  LIG1   0.1300
     31 H4        -48.3335   -44.0262     2.1657 H          1  LIG1   0.0800
     32 H5        -46.9069   -44.6613     3.0493 H          1  LIG1   0.0800
     33 H6        -48.6122   -42.1931     3.7061 H          1  LIG1   0.0800
     34 H7        -48.0352   -43.4794     4.8182 H          1  LIG1   0.0800
     35 H8        -46.6639   -41.1525     4.6734 H          1  LIG1   0.0800
     36 H9        -45.7631   -42.6986     4.7258 H          1  LIG1   0.0700
     37 H10       -47.6921   -39.8768     2.4464 H          1  LIG1   0.1400
     38 H11       -48.8156   -37.7570     2.9915 H          1  LIG1   0.1400
     39 H12       -47.4938   -35.7771     3.6101 H          1  LIG1   0.1400
     40 H13       -45.0386   -35.9068     3.6889 H          1  LIG1   0.1400
     41 H14       -42.9933   -37.5892     5.2536 H          1  LIG1   0.1800
     42 H15       -40.4711   -37.9805     4.3094 H          1  LIG1   0.1900
@<TRIPOS>BOND
     1    1    2 2
     2    2    3 1
     3    2    4 1
     4    4   28 1
     5    4    5 2
     6    5    6 1
     7    5   29 1
     8    6    7 2
     9    6   30 1
    10    7    8 1
    11    7   28 1
    12    8    9 1
    13    8   13 1
    14    8   10 1
    15   10   11 1
    16   10   31 1
    17   10   32 1
    18   11   12 1
    19   11   33 1
    20   11   34 1
    21   12   13 1
    22   12   35 1
    23   12   36 1
    24   13   14 1
    25   14   15 2
    26   14   16 2
    27   14   17 1
    28   17   22 ar
    29   17   18 ar
    30   18   19 ar
    31   18   37 1
    32   19   20 ar
    33   19   38 1
    34   20   21 ar
    35   20   39 1
    36   21   22 ar
    37   21   40 1
    38   22   23 1
    39   23   27 1
    40   23   24 2
    41   24   25 1
    42   24   41 1
    43   25   26 2
    44   25   42 1
    45   26   27 1
##########                 Name:     ZINC000564352778
##########          Protonation:                 none
##########               SMILES:   CC[C@H](SC1=N[N-]C(=N)N1C)C1=CC=C(Br)C=C1
##########            Long Name:   NO_LONG_NAME
##########          FlexRecCode: 1
##########               Number:                20700
##########   Ligand Source File: /bks/ex5/3D/EG/ADRM/EGADRM.xai.db2.gz
##########                 Rank:                    1
##########               Setnum:                   11
##########             Matchnum:                    1
##########                Cloud:                    1
##########        Electrostatic:           -59.631927
##########                 Gist:             0.000000
##########        Van der Waals:           -26.909195
##########  Ligand Polar Desolv:            26.815973
########## Ligand Apolar Desolv:            -7.517656
##########      Internal Energy:             0.000000
##########      Receptor Energy:             0.000000
########## Receptor Desolvation:             0.000000
########## Receptor Hydrophobic:             0.000000
##########         Total Energy:           -67.242805
##########        Ligand Charge:            -1.000000
##########            Arbitrary:    +999.9990
##########        Ligand Energy:             0.000000

@<TRIPOS>MOLECULE
 ZINC000776562229      none
   37    39    -1     0     0



@<TRIPOS>ATOM
      1 O1        -42.2269   -45.3047    -0.7633 O.co2      1  LIG1  -0.6700
      2 C1        -43.1723   -45.6161    -0.0526 C.2        1  LIG1   0.5200
      3 O2        -43.4168   -46.7960     0.1580 O.co2      1  LIG1  -0.6600
      4 C2        -44.0134   -44.5695     0.5551 C.ar       1  LIG1  -0.1200
      5 C3        -45.0919   -44.9222     1.3728 C.ar       1  LIG1  -0.1000
      6 C4        -45.8772   -43.9391     1.9409 C.ar       1  LIG1   0.1000
      7 F1        -46.9182   -44.2821     2.7308 F          1  LIG1  -0.1400
      8 C5        -45.6018   -42.6018     1.7042 C.ar       1  LIG1  -0.1900
      9 C6        -44.5343   -42.2399     0.8944 C.ar       1  LIG1   0.1200
     10 N1        -44.2614   -40.8882     0.6599 N.pl3      1  LIG1  -1.0500
     11 S1        -42.7980   -40.2506     1.1004 S.o2       1  LIG1   2.6900
     12 O3        -43.0015   -38.8536     1.2630 O.2        1  LIG1  -0.9500
     13 O4        -42.2893   -41.0869     2.1305 O.2        1  LIG1  -0.9500
     14 C7        -41.7120   -40.4383    -0.2744 C.2        1  LIG1  -0.7000
     15 C8        -42.0194   -39.8669    -1.4280 C.2        1  LIG1   0.0600
     16 C9        -41.1332   -40.0500    -2.5955 C.ar       1  LIG1  -0.0900
     17 C10       -41.2253   -39.2086    -3.7018 C.ar       1  LIG1  -0.0800
     18 C11       -40.3737   -39.3936    -4.7731 C.ar       1  LIG1  -0.1300
     19 C12       -39.4335   -40.4078    -4.7470 C.ar       1  LIG1  -0.1000
     20 C13       -39.3419   -41.2500    -3.6521 C.ar       1  LIG1  -0.1300
     21 C14       -40.1916   -41.0800    -2.5806 C.ar       1  LIG1  -0.0500
     22 C15       -40.1324   -42.0106    -1.3975 C.3        1  LIG1  -0.0800
     23 C16       -40.4500   -41.2399    -0.1141 C.3        1  LIG1  -0.0600
     24 C17       -43.7331   -43.2197     0.3212 C.ar       1  LIG1   0.1100
     25 F2        -42.6931   -42.8699    -0.4671 F          1  LIG1  -0.1100
     26 H1        -45.3102   -45.9633     1.5597 H          1  LIG1   0.1500
     27 H2        -46.2206   -41.8380     2.1515 H          1  LIG1   0.1700
     28 H3        -44.9293   -40.3244     0.2395 H          1  LIG1   0.4300
     29 H4        -42.9148   -39.2692    -1.5154 H          1  LIG1   0.1500
     30 H5        -41.9589   -38.4163    -3.7217 H          1  LIG1   0.1300
     31 H6        -40.4422   -38.7449    -5.6338 H          1  LIG1   0.1300
     32 H7        -38.7670   -40.5436    -5.5860 H          1  LIG1   0.1300
     33 H8        -38.6056   -42.0399    -3.6378 H          1  LIG1   0.1300
     34 H9        -40.8583   -42.8127    -1.5313 H          1  LIG1   0.0800
     35 H10       -39.1325   -42.4382    -1.3231 H          1  LIG1   0.0900
     36 H11       -39.6203   -40.5720     0.1175 H          1  LIG1   0.0900
     37 H12       -40.5797   -41.9467     0.7056 H          1  LIG1   0.0900
@<TRIPOS>BOND
     1    1    2 2
     2    2    3 1
     3    2    4 1
     4    4   24 ar
     5    4    5 ar
     6    5    6 ar
     7    5   26 1
     8    6    7 1
     9    6    8 ar
    10    8    9 ar
    11    8   27 1
    12    9   10 1
    13    9   24 ar
    14   10   11 1
    15   10   28 1
    16   11   12 2
    17   11   13 2
    18   11   14 1
    19   14   23 1
    20   14   15 2
    21   15   16 1
    22   15   29 1
    23   16   21 ar
    24   16   17 ar
    25   17   18 ar
    26   17   30 1
    27   18   19 ar
    28   18   31 1
    29   19   20 ar
    30   19   32 1
    31   20   21 ar
    32   20   33 1
    33   21   22 1
    34   22   23 1
    35   22   34 1
    36   22   35 1
    37   23   36 1
    38   23   37 1
    39   24   25 1
##########                 Name:     ZINC000776636520
##########          Protonation:                 none
##########               SMILES:   O=C([O-])CC[C@H](CC1=CC=CC=C1)NS(=O)(=O)/C=C/C1=CC=CC=C1Cl
##########            Long Name:   NO_LONG_NAME
##########          FlexRecCode: 1
##########               Number:                56437
##########   Ligand Source File: /bks/ex7/3D/GH/ADRM/GHADRM.xbs.db2.gz
##########                 Rank:                    1
##########               Setnum:                   84
##########             Matchnum:                    1
##########                Cloud:                    1
##########        Electrostatic:           -70.485207
##########                 Gist:             0.000000
##########        Van der Waals:           -26.209311
##########  Ligand Polar Desolv:            33.145306
########## Ligand Apolar Desolv:            -7.164267
##########      Internal Energy:             0.000000
##########      Receptor Energy:             0.000000
########## Receptor Desolvation:             0.000000
########## Receptor Hydrophobic:             0.000000
##########         Total Energy:           -70.713478
##########        Ligand Charge:            -1.000000
##########            Arbitrary:    +999.9990
##########        Ligand Energy:             0.000000

@<TRIPOS>MOLECULE
 ZINC000776636520      none
   45    46    -1     0     0



@<TRIPOS>ATOM
      1 O1        -43.6113   -47.7494    -0.6611 O.co2      1  LIG1  -0.7000
      2 C1        -43.0276   -46.6985    -0.4574 C.2        1  LIG1   0.4900
      3 O2        -41.9859   -46.4564    -1.0428 O.co2      1  LIG1  -0.7000
      4 C2        -43.5970   -45.6962     0.5131 C.3        1  LIG1  -0.1800
      5 C3        -43.8807   -44.3824    -0.2181 C.3        1  LIG1  -0.1000
      6 C4        -44.4588   -43.3648     0.7673 C.3        1  LIG1   0.1600
      7 H1        -43.9363   -43.4447     1.7205 H          1  LIG1   0.0900
      8 C5        -45.9480   -43.6465     0.9767 C.3        1  LIG1  -0.0900
      9 C6        -46.4045   -43.0065     2.2623 C.ar       1  LIG1  -0.0700
     10 C7        -46.3352   -43.7125     3.4486 C.ar       1  LIG1  -0.1100
     11 C8        -46.7539   -43.1254     4.6279 C.ar       1  LIG1  -0.1100
     12 C9        -47.2415   -41.8319     4.6209 C.ar       1  LIG1  -0.1200
     13 C10       -47.3099   -41.1255     3.4347 C.ar       1  LIG1  -0.1200
     14 C11       -46.8872   -41.7112     2.2561 C.ar       1  LIG1  -0.1200
     15 N1        -44.2887   -42.0129     0.2290 N.pl3      1  LIG1  -1.1000
     16 S1        -42.9168   -41.1514     0.5726 S.o2       1  LIG1   2.6800
     17 O3        -43.2551   -39.7798     0.4184 O.2        1  LIG1  -0.9700
     18 O4        -42.3947   -41.6923     1.7784 O.2        1  LIG1  -0.9500
     19 C12       -41.7411   -41.5184    -0.6875 C.2        1  LIG1  -0.7400
     20 C13       -42.0202   -41.2454    -1.9545 C.2        1  LIG1   0.0500
     21 C14       -41.0340   -41.5533    -3.0113 C.ar       1  LIG1  -0.0800
     22 C15       -40.6096   -42.8669    -3.2125 C.ar       1  LIG1  -0.0600
     23 C16       -39.6890   -43.1478    -4.2013 C.ar       1  LIG1  -0.1100
     24 C17       -39.1860   -42.1305    -4.9923 C.ar       1  LIG1  -0.0900
     25 C18       -39.6018   -40.8253    -4.7987 C.ar       1  LIG1  -0.1200
     26 C19       -40.5272   -40.5310    -3.8169 C.ar       1  LIG1  -0.0100
     27 Cl1       -41.0480   -38.8928    -3.5748 Cl         1  LIG1  -0.0600
     28 H2        -44.5240   -46.0848     0.9348 H          1  LIG1   0.0500
     29 H3        -42.8799   -45.5183     1.3145 H          1  LIG1   0.0600
     30 H4        -42.9537   -43.9938    -0.6398 H          1  LIG1   0.0700
     31 H5        -44.5979   -44.5603    -1.0195 H          1  LIG1   0.0800
     32 H6        -46.5166   -43.2338     0.1433 H          1  LIG1   0.0800
     33 H7        -46.1101   -44.7232     1.0292 H          1  LIG1   0.0900
     34 H8        -45.9543   -44.7231     3.4541 H          1  LIG1   0.1200
     35 H9        -46.7004   -43.6773     5.5547 H          1  LIG1   0.1200
     36 H10       -47.5694   -41.3734     5.5422 H          1  LIG1   0.1100
     37 H11       -47.6911   -40.1150     3.4292 H          1  LIG1   0.1200
     38 H12       -46.9407   -41.1592     1.3293 H          1  LIG1   0.1200
     39 H13       -44.9797   -41.6224    -0.3288 H          1  LIG1   0.4200
     40 H14       -40.7931   -41.9657    -0.4276 H          1  LIG1   0.1600
     41 H15       -42.9682   -40.7980    -2.2143 H          1  LIG1   0.1500
     42 H16       -41.0006   -43.6622    -2.5953 H          1  LIG1   0.1400
     43 H17       -39.3598   -44.1645    -4.3576 H          1  LIG1   0.1400
     44 H18       -38.4655   -42.3562    -5.7645 H          1  LIG1   0.1400
     45 H19       -39.2049   -40.0356    -5.4193 H          1  LIG1   0.1400
@<TRIPOS>BOND
     1    1    2 2
     2    2    3 1
     3    2    4 1
     4    4    5 1
     5    4   28 1
     6    4   29 1
     7    5    6 1
     8    5   30 1
     9    5   31 1
    10    6    7 1
    11    6    8 1
    12    6   15 1
    13    8    9 1
    14    8   32 1
    15    8   33 1
    16    9   14 ar
    17    9   10 ar
    18   10   11 ar
    19   10   34 1
    20   11   12 ar
    21   11   35 1
    22   12   13 ar
    23   12   36 1
    24   13   14 ar
    25   13   37 1
    26   14   38 1
    27   15   16 1
    28   15   39 1
    29   16   17 2
    30   16   18 2
    31   16   19 1
    32   19   20 2
    33   19   40 1
    34   20   21 1
    35   20   41 1
    36   21   26 ar
    37   21   22 ar
    38   22   23 ar
    39   22   42 1
    40   23   24 ar
    41   23   43 1
    42   24   25 ar
    43   24   44 1
    44   25   26 ar
    45   25   45 1
    46   26   27 1
##########                 Name:     ZINC000583595966
##########          Protonation:                 none
##########               SMILES:   O=C(CCN1C2=CC=CC=C2N=C1C1CC1)N=C1C=C(C(F)(F)F)[N-]N1
##########            Long Name:   NO_LONG_NAME
##########          FlexRecCode: 1
##########               Number:                16653
##########   Ligand Source File: /bks/ex4/3D/FG/ADRM/FGADRM.xbt.db2.gz
##########                 Rank:                    1
##########               Setnum:                  115
##########             Matchnum:                    1
##########                Cloud:                    1
##########        Electrostatic:           -57.597870
##########                 Gist:             0.000000
##########        Van der Waals:           -25.824745
##########  Ligand Polar Desolv:            22.062885
########## Ligand Apolar Desolv:            -5.156804
##########      Internal Energy:             0.000000
##########      Receptor Energy:             0.000000
########## Receptor Desolvation:             0.000000
########## Receptor Hydrophobic:             0.000000
##########         Total Energy:           -66.516533
##########        Ligand Charge:            -1.000000
##########            Arbitrary:    +999.9990
##########        Ligand Energy:             0.000000

@<TRIPOS>MOLECULE
 ZINC000535102851      none
   51    53     0     0     0



@<TRIPOS>ATOM
      1 C1        -46.9816   -34.4263     4.3148 C.3        1  LIG1  -0.1700
      2 C2        -45.8540   -35.4251     4.2673 C.2        1  LIG1   0.5100
      3 O1        -45.5248   -36.0165     5.2738 O.2        1  LIG1  -0.5200
      4 N1        -45.2115   -35.6614     3.1063 N.am       1  LIG1  -0.6800
      5 C3        -44.1630   -36.5901     3.0621 C.ar       1  LIG1   0.1300
      6 C4        -42.8579   -36.1747     3.3029 C.ar       1  LIG1  -0.0700
      7 C5        -41.8187   -37.0823     3.2609 C.ar       1  LIG1  -0.1300
      8 C6        -42.0697   -38.4162     2.9780 C.ar       1  LIG1   0.1600
      9 O2        -41.0466   -39.3072     2.9372 O.3        1  LIG1  -0.4800
     10 C7        -43.3825   -38.8425     2.7347 C.ar       1  LIG1  -0.1500
     11 C8        -43.6576   -40.2601     2.4334 C.2        1  LIG1   0.5600
     12 O3        -42.7443   -41.0621     2.3957 O.2        1  LIG1  -0.4900
     13 N2        -44.9212   -40.6666     2.2000 N.am       1  LIG1  -0.6700
     14 C9        -45.1822   -42.0108     1.9144 C.ar       1  LIG1   0.1500
     15 C10       -46.4030   -42.5722     2.2690 C.ar       1  LIG1  -0.1000
     16 C11       -46.6657   -43.9004     1.9894 C.ar       1  LIG1  -0.1000
     17 C12       -45.7177   -44.6775     1.3561 C.ar       1  LIG1  -0.1100
     18 C13       -44.4880   -44.1230     0.9953 C.ar       1  LIG1  -0.1100
     19 C14       -43.4705   -44.9534     0.3167 C.2        1  LIG1   0.5600
     20 O4        -43.0715   -44.6430    -0.7888 O.2        1  LIG1  -0.5100
     21 N3        -42.9852   -46.0546     0.9238 N.am       1  LIG1  -0.5500
     22 C15       -42.9063   -46.1104     2.3856 C.3        1  LIG1   0.0600
     23 C16       -42.5571   -47.1437     0.1583 C.ar       1  LIG1   0.1500
     24 C17       -41.5454   -47.9706     0.6294 C.ar       1  LIG1  -0.1600
     25 C18       -41.1253   -49.0459    -0.1287 C.ar       1  LIG1  -0.1000
     26 C19       -41.7103   -49.2993    -1.3558 C.ar       1  LIG1  -0.1400
     27 C20       -42.7176   -48.4777    -1.8280 C.ar       1  LIG1  -0.1000
     28 C21       -43.1466   -47.4046    -1.0720 C.ar       1  LIG1  -0.1600
     29 C22       -44.2250   -42.7817     1.2726 C.ar       1  LIG1  -0.1000
     30 C23       -44.4296   -37.9198     2.7843 C.ar       1  LIG1  -0.1000
     31 H1        -47.1315   -34.0003     3.3229 H          1  LIG1   0.1000
     32 H2        -47.8953   -34.9253     4.6379 H          1  LIG1   0.0800
     33 H3        -46.7334   -33.6315     5.0181 H          1  LIG1   0.1000
     34 H4        -45.4749   -35.1885     2.3013 H          1  LIG1   0.4100
     35 H5        -42.6564   -35.1369     3.5235 H          1  LIG1   0.1500
     36 H6        -40.8076   -36.7524     3.4486 H          1  LIG1   0.1400
     37 H7        -40.1796   -38.9189     3.1183 H          1  LIG1   0.4000
     38 H8        -45.6499   -40.0268     2.2301 H          1  LIG1   0.4100
     39 H9        -47.1490   -41.9688     2.7648 H          1  LIG1   0.1400
     40 H10       -47.6161   -44.3312     2.2680 H          1  LIG1   0.1400
     41 H11       -45.9265   -45.7148     1.1398 H          1  LIG1   0.1300
     42 H12       -42.4914   -47.0711     2.6906 H          1  LIG1   0.0700
     43 H13       -42.2643   -45.3065     2.7457 H          1  LIG1   0.0900
     44 H14       -43.9045   -45.9951     2.8080 H          1  LIG1   0.0900
     45 H15       -41.0875   -47.7728     1.5873 H          1  LIG1   0.1700
     46 H16       -40.3386   -49.6893     0.2369 H          1  LIG1   0.1300
     47 H17       -41.3797   -50.1406    -1.9469 H          1  LIG1   0.1200
     48 H18       -43.1722   -48.6782    -2.7868 H          1  LIG1   0.1300
     49 H19       -43.9332   -46.7632    -1.4411 H          1  LIG1   0.1300
     50 H20       -43.2759   -42.3472     0.9956 H          1  LIG1   0.1300
     51 H21       -45.4436   -38.2412     2.5983 H          1  LIG1   0.1300
@<TRIPOS>BOND
     1    1    2 1
     2    1   31 1
     3    1   32 1
     4    1   33 1
     5    2    3 2
     6    2    4 am
     7    4    5 1
     8    4   34 1
     9    5   30 ar
    10    5    6 ar
    11    6    7 ar
    12    6   35 1
    13    7    8 ar
    14    7   36 1
    15    8    9 1
    16    8   10 ar
    17    9   37 1
    18   10   11 1
    19   10   30 ar
    20   11   12 2
    21   11   13 am
    22   13   14 1
    23   13   38 1
    24   14   29 ar
    25   14   15 ar
    26   15   16 ar
    27   15   39 1
    28   16   17 ar
    29   16   40 1
    30   17   18 ar
    31   17   41 1
    32   18   19 1
    33   18   29 ar
    34   19   20 2
    35   19   21 am
    36   21   22 1
    37   21   23 1
    38   22   42 1
    39   22   43 1
    40   22   44 1
    41   23   28 ar
    42   23   24 ar
    43   24   25 ar
    44   24   45 1
    45   25   26 ar
    46   25   46 1
    47   26   27 ar
    48   26   47 1
    49   27   28 ar
    50   27   48 1
    51   28   49 1
    52   29   50 1
    53   30   51 1
##########                 Name:     ZINC000080510038
##########          Protonation:                 none
##########               SMILES:   CN(C(=O)CSC1=N[N-]C(=S)S1)C1=CC=C2C=CC=CC2=C1
##########            Long Name:   NO_LONG_NAME
##########          FlexRecCode: 1
##########               Number:                 4089
##########   Ligand Source File: /bks/ex5/3D/EH/ADRM/EHADRM.xax.db2.gz
##########                 Rank:                    1
##########               Setnum:                   17
##########             Matchnum:                    1
##########                Cloud:                    1
##########        Electrostatic:           -61.853966
##########                 Gist:             0.000000
##########        Van der Waals:           -26.295841
##########  Ligand Polar Desolv:            27.894974
########## Ligand Apolar Desolv:            -6.739739
##########      Internal Energy:             0.000000
##########      Receptor Energy:             0.000000
########## Receptor Desolvation:             0.000000
########## Receptor Hydrophobic:             0.000000
##########         Total Energy:           -66.994576
##########        Ligand Charge:            -1.000000
##########            Arbitrary:    +999.9990
##########        Ligand Energy:             0.000000

@<TRIPOS>MOLECULE
 ZINC000080510038      none
   34    36    -1     0     0



@<TRIPOS>ATOM
      1 C1        -40.0691   -41.4921     0.2045 C.3        1  LIG1   0.0700
      2 N1        -41.4189   -41.2846    -0.3257 N.am       1  LIG1  -0.5700
      3 C2        -42.4915   -41.6807     0.3880 C.2        1  LIG1   0.5400
      4 O1        -42.4431   -41.6915     1.5999 O.2        1  LIG1  -0.5100
      5 C3        -43.7508   -42.1101    -0.3196 C.3        1  LIG1  -0.1500
      6 S1        -44.6152   -43.3446     0.6829 S.3        1  LIG1   0.0700
      7 C4        -43.8813   -44.8178     0.0538 C.2        1  LIG1  -0.0100
      8 N2        -42.9776   -44.9093    -0.8725 N.2        1  LIG1  -0.2900
      9 N3        -42.5266   -46.1603    -1.2286 N.2        1  LIG1  -0.3600
     10 C5        -43.0672   -47.2076    -0.5776 C.2        1  LIG1   0.2600
     11 S2        -42.7156   -48.8689    -0.7946 S.2        1  LIG1  -0.6500
     12 S3        -44.2189   -46.4830     0.5607 S.3        1  LIG1  -0.0600
     13 C6        -41.5947   -40.6754    -1.5724 C.ar       1  LIG1   0.1400
     14 C7        -42.3180   -39.4807    -1.6636 C.ar       1  LIG1  -0.1100
     15 C8        -42.5042   -38.8665    -2.8621 C.ar       1  LIG1  -0.1000
     16 C9        -41.9660   -39.4326    -4.0307 C.ar       1  LIG1  -0.0500
     17 C10       -42.1421   -38.8197    -5.2831 C.ar       1  LIG1  -0.1100
     18 C11       -41.6077   -39.3935    -6.3955 C.ar       1  LIG1  -0.1200
     19 C12       -40.8866   -40.5835    -6.3137 C.ar       1  LIG1  -0.1200
     20 C13       -40.6956   -41.2058    -5.1187 C.ar       1  LIG1  -0.1000
     21 C14       -41.2320   -40.6427    -3.9474 C.ar       1  LIG1  -0.0400
     22 C15       -41.0495   -41.2546    -2.6970 C.ar       1  LIG1  -0.0900
     23 H1        -39.3366   -41.1108    -0.5071 H          1  LIG1   0.0700
     24 H2        -39.9654   -40.9627     1.1516 H          1  LIG1   0.0800
     25 H3        -39.9009   -42.5573     0.3634 H          1  LIG1   0.0800
     26 H4        -44.3972   -41.2452    -0.4680 H          1  LIG1   0.1200
     27 H5        -43.4944   -42.5423    -1.2870 H          1  LIG1   0.1200
     28 H6        -42.7343   -39.0407    -0.7695 H          1  LIG1   0.1300
     29 H7        -43.0649   -37.9450    -2.9163 H          1  LIG1   0.1300
     30 H8        -42.6990   -37.8977    -5.3624 H          1  LIG1   0.1300
     31 H9        -41.7449   -38.9198    -7.3564 H          1  LIG1   0.1200
     32 H10       -40.4738   -41.0182    -7.2121 H          1  LIG1   0.1200
     33 H11       -40.1349   -42.1276    -5.0703 H          1  LIG1   0.1300
     34 H12       -40.4892   -42.1745    -2.6179 H          1  LIG1   0.1300
@<TRIPOS>BOND
     1    1    2 1
     2    1   23 1
     3    1   24 1
     4    1   25 1
     5    2    3 am
     6    2   13 1
     7    3    4 2
     8    3    5 1
     9    5    6 1
    10    5   26 1
    11    5   27 1
    12    6    7 1
    13    7   12 1
    14    7    8 2
    15    8    9 1
    16    9   10 1
    17   10   11 2
    18   10   12 1
    19   13   22 ar
    20   13   14 ar
    21   14   15 ar
    22   14   28 1
    23   15   16 ar
    24   15   29 1
    25   16   21 ar
    26   16   17 ar
    27   17   18 ar
    28   17   30 1
    29   18   19 ar
    30   18   31 1
    31   19   20 ar
    32   19   32 1
    33   20   21 ar
    34   20   33 1
    35   21   22 ar
    36   22   34 1
##########                 Name:     ZINC000740013032
##########          Protonation:                 none
##########               SMILES:   O=C([O-])NC1=CC(NS(=O)(=O)C2=CC(F)=C(F)C(F)=C2)=CC=C1F
##########            Long Name:   NO_LONG_NAME
##########          FlexRecCode: 1
##########               Number:                53537
##########   Ligand Source File: /bks/ex4/3D/FG/ADRM/FGADRM.xbv.db2.gz
##########                 Rank:                    1
##########               Setnum:                  113
##########             Matchnum:                    1
##########                Cloud:                    1
##########        Electrostatic:           -80.372444
##########                 Gist:             0.000000
##########        Van der Waals:           -16.212170
##########  Ligand Polar Desolv:            32.290684
########## Ligand Apolar Desolv:            -2.441313
##########      Internal Energy:             0.000000
##########      Receptor Energy:             0.000000
########## Receptor Desolvation:             0.000000
########## Receptor Hydrophobic:             0.000000
##########         Total Energy:           -66.735237
##########        Ligand Charge:            -1.000000
##########            Arbitrary:    +999.9990
##########        Ligand Energy:             0.000000

@<TRIPOS>MOLECULE
 ZINC000409114296      none
   47    49    -1     0     0



@<TRIPOS>ATOM
      1 C1        -40.4186   -36.7870     4.2706 C.3        1  LIG1  -0.1500
      2 C2        -41.8077   -37.4285     4.2660 C.3        1  LIG1  -0.1400
      3 C3        -42.4772   -37.1854     2.9119 C.3        1  LIG1   0.1100
      4 N1        -43.8072   -37.7996     2.9075 N.am       1  LIG1  -0.5500
      5 C4        -44.0564   -39.0635     2.5248 C.2        1  LIG1   0.5500
      6 O1        -43.2313   -39.8689     2.1335 O.2        1  LIG1  -0.4800
      7 C5        -45.5024   -39.3030     2.6623 C.2        1  LIG1  -0.1700
      8 C6        -46.1847   -40.4522     2.3828 C.2        1  LIG1   0.0500
      9 C7        -45.4995   -41.5703     1.7293 C.ar       1  LIG1  -0.0900
     10 C8        -44.6071   -41.3293     0.6753 C.ar       1  LIG1  -0.1000
     11 C9        -43.9650   -42.3869     0.0646 C.ar       1  LIG1   0.1000
     12 O2        -43.0982   -42.1565    -0.9580 O.3        1  LIG1  -0.2900
     13 C10       -42.9010   -40.7956    -1.3471 C.3        1  LIG1   0.0300
     14 C11       -44.2035   -43.6924     0.4952 C.ar       1  LIG1   0.1500
     15 O3        -43.5695   -44.7304    -0.1086 O.3        1  LIG1  -0.2600
     16 C12       -43.8591   -46.0411     0.3814 C.3        1  LIG1  -0.0100
     17 C13       -43.0696   -47.0567    -0.4036 C.2        1  LIG1   0.5000
     18 O4        -42.3276   -46.6919    -1.2996 O.co2      1  LIG1  -0.6700
     19 O5        -43.1728   -48.2432    -0.1427 O.co2      1  LIG1  -0.6900
     20 C14       -45.0867   -43.9343     1.5394 C.ar       1  LIG1  -0.1700
     21 C15       -45.7298   -42.8853     2.1597 C.ar       1  LIG1  -0.0500
     22 Br1       -46.9311   -43.2192     3.5814 Br         1  LIG1  -0.0500
     23 C16       -46.0563   -38.0270     3.1697 C.ar       1  LIG1  -0.1000
     24 C17       -47.3409   -37.6104     3.5007 C.ar       1  LIG1  -0.0600
     25 C18       -47.5469   -36.3243     3.9587 C.ar       1  LIG1  -0.1400
     26 C19       -46.4779   -35.4538     4.0875 C.ar       1  LIG1  -0.0800
     27 C20       -45.1988   -35.8577     3.7610 C.ar       1  LIG1  -0.1400
     28 C21       -44.9707   -37.1509     3.3042 C.ar       1  LIG1   0.1500
     29 H1        -39.9417   -36.9601     5.2353 H          1  LIG1   0.0600
     30 H2        -39.8117   -37.2292     3.4806 H          1  LIG1   0.0600
     31 H3        -40.5130   -35.7147     4.0992 H          1  LIG1   0.0600
     32 H4        -41.7133   -38.5008     4.4374 H          1  LIG1   0.0700
     33 H5        -42.4147   -36.9863     5.0560 H          1  LIG1   0.0700
     34 H6        -42.5716   -36.1131     2.7405 H          1  LIG1   0.0800
     35 H7        -41.8702   -37.6276     2.1219 H          1  LIG1   0.0900
     36 H8        -47.2293   -40.5371     2.6435 H          1  LIG1   0.1500
     37 H9        -44.4230   -40.3187     0.3420 H          1  LIG1   0.1400
     38 H10       -43.8513   -40.3678    -1.6664 H          1  LIG1   0.0500
     39 H11       -42.5132   -40.2284    -0.5009 H          1  LIG1   0.0600
     40 H12       -42.1882   -40.7529    -2.1704 H          1  LIG1   0.1000
     41 H13       -43.5860   -46.1038     1.4348 H          1  LIG1   0.0600
     42 H14       -44.9243   -46.2436     0.2696 H          1  LIG1   0.0600
     43 H15       -45.2674   -44.9469     1.8683 H          1  LIG1   0.1500
     44 H16       -48.1742   -38.2899     3.3996 H          1  LIG1   0.1300
     45 H17       -48.5432   -35.9967     4.2165 H          1  LIG1   0.1300
     46 H18       -46.6463   -34.4492     4.4464 H          1  LIG1   0.1300
     47 H19       -44.3731   -35.1693     3.8651 H          1  LIG1   0.1200
@<TRIPOS>BOND
     1    1    2 1
     2    1   29 1
     3    1   30 1
     4    1   31 1
     5    2    3 1
     6    2   32 1
     7    2   33 1
     8    3    4 1
     9    3   34 1
    10    3   35 1
    11    4   28 1
    12    4    5 am
    13    5    6 2
    14    5    7 1
    15    7    8 2
    16    7   23 1
    17    8    9 1
    18    8   36 1
    19    9   21 ar
    20    9   10 ar
    21   10   11 ar
    22   10   37 1
    23   11   12 1
    24   11   14 ar
    25   12   13 1
    26   13   38 1
    27   13   39 1
    28   13   40 1
    29   14   15 1
    30   14   20 ar
    31   15   16 1
    32   16   17 1
    33   16   41 1
    34   16   42 1
    35   17   18 2
    36   17   19 1
    37   20   21 ar
    38   20   43 1
    39   21   22 1
    40   23   28 ar
    41   23   24 ar
    42   24   25 ar
    43   24   44 1
    44   25   26 ar
    45   25   45 1
    46   26   27 ar
    47   26   46 1
    48   27   28 ar
    49   27   47 1
##########                 Name:     ZINC000387578385
##########          Protonation:                 none
##########               SMILES:   O=C([O-])C1=CC(NS(=O)(=O)C2=CC=C(Br)C=C2F)=CC=C1O
##########            Long Name:   NO_LONG_NAME
##########          FlexRecCode: 1
##########               Number:                 2789
##########   Ligand Source File: /bks/ex7/3D/GF/CDMM/GFCDMM.xaa.db2.gz
##########                 Rank:                    1
##########               Setnum:                  280
##########             Matchnum:                    1
##########                Cloud:                    1
##########        Electrostatic:           -79.311256
##########                 Gist:             0.000000
##########        Van der Waals:           -20.569462
##########  Ligand Polar Desolv:            36.464195
########## Ligand Apolar Desolv:            -3.132639
##########      Internal Energy:             0.000000
##########      Receptor Energy:             0.000000
########## Receptor Desolvation:             0.000000
########## Receptor Hydrophobic:             0.000000
##########         Total Energy:           -66.549164
##########        Ligand Charge:            -1.000000
##########            Arbitrary:    +999.9990
##########        Ligand Energy:             0.000000

@<TRIPOS>MOLECULE
 ZINC000387578385      none
   30    31    -1     0     0



@<TRIPOS>ATOM
      1 O1        -42.8784   -47.0207    -0.0708 O.co2      1  LIG1  -0.6900
      2 C1        -42.8987   -45.8083    -0.2339 C.2        1  LIG1   0.5200
      3 O2        -42.2700   -45.3043    -1.1544 O.co2      1  LIG1  -0.6700
      4 C2        -43.6844   -44.9568     0.6736 C.ar       1  LIG1  -0.1500
      5 C3        -43.7151   -43.5712     0.4871 C.ar       1  LIG1  -0.0700
      6 C4        -44.4568   -42.7777     1.3445 C.ar       1  LIG1   0.1000
      7 N1        -44.4892   -41.3908     1.1594 N.pl3      1  LIG1  -1.0400
      8 S1        -43.0860   -40.5137     1.2247 S.o2       1  LIG1   2.7000
      9 O3        -43.4593   -39.1835     1.5569 O.2        1  LIG1  -0.9400
     10 O4        -42.1699   -41.2792     1.9956 O.2        1  LIG1  -0.9500
     11 C5        -42.4319   -40.4535    -0.4101 C.ar       1  LIG1  -0.7000
     12 C6        -43.0714   -39.7096    -1.3832 C.ar       1  LIG1   0.0200
     13 C7        -42.5585   -39.6614    -2.6663 C.ar       1  LIG1  -0.1200
     14 C8        -41.4048   -40.3582    -2.9772 C.ar       1  LIG1  -0.0100
     15 Br1       -40.7044   -40.2914    -4.7325 Br         1  LIG1  -0.0200
     16 C9        -40.7633   -41.1033    -2.0046 C.ar       1  LIG1  -0.1500
     17 C10       -41.2735   -41.1470    -0.7187 C.ar       1  LIG1   0.2100
     18 F1        -40.6474   -41.8741     0.2326 F          1  LIG1  -0.1100
     19 C11       -45.1706   -43.3551     2.3898 C.ar       1  LIG1  -0.1400
     20 C12       -45.1450   -44.7219     2.5807 C.ar       1  LIG1  -0.1500
     21 C13       -44.4114   -45.5315     1.7269 C.ar       1  LIG1   0.1400
     22 O5        -44.3879   -46.8750     1.9161 O.3        1  LIG1  -0.4700
     23 H1        -43.1612   -43.1216    -0.3238 H          1  LIG1   0.1400
     24 H2        -45.3336   -40.9433     0.9929 H          1  LIG1   0.4300
     25 H3        -43.9726   -39.1658    -1.1416 H          1  LIG1   0.1600
     26 H4        -43.0591   -39.0797    -3.4261 H          1  LIG1   0.1500
     27 H5        -39.8625   -41.6474    -2.2473 H          1  LIG1   0.1600
     28 H6        -45.7477   -42.7305     3.0556 H          1  LIG1   0.1500
     29 H7        -45.7016   -45.1625     3.3947 H          1  LIG1   0.1300
     30 H8        -44.9189   -47.1759     2.6660 H          1  LIG1   0.3900
@<TRIPOS>BOND
     1    1    2 2
     2    2    3 1
     3    2    4 1
     4    4   21 ar
     5    4    5 ar
     6    5    6 ar
     7    5   23 1
     8    6    7 1
     9    6   19 ar
    10    7    8 1
    11    7   24 1
    12    8    9 2
    13    8   10 2
    14    8   11 1
    15   11   17 ar
    16   11   12 ar
    17   12   13 ar
    18   12   25 1
    19   13   14 ar
    20   13   26 1
    21   14   15 1
    22   14   16 ar
    23   16   17 ar
    24   16   27 1
    25   17   18 1
    26   19   20 ar
    27   19   28 1
    28   20   21 ar
    29   20   29 1
    30   21   22 1
    31   22   30 1
##########                 Name:     ZINC000492370254
##########          Protonation:                 none
##########               SMILES:   O=C(C=CC1=CSC=C1)N1CCC[C@@H](C2=NN=N[N-]2)C1
##########            Long Name:   NO_LONG_NAME
##########          FlexRecCode: 1
##########               Number:                33914
##########   Ligand Source File: /bks/ex7/3D/CD/ADRM/CDADRM.xax.db2.gz
##########                 Rank:                    1
##########               Setnum:                   47
##########             Matchnum:                    1
##########                Cloud:                    1
##########        Electrostatic:           -75.359383
##########                 Gist:             0.000000
##########        Van der Waals:           -20.363201
##########  Ligand Polar Desolv:            27.453400
########## Ligand Apolar Desolv:            -3.567246
##########      Internal Energy:             0.000000
##########      Receptor Energy:             0.000000
########## Receptor Desolvation:             0.000000
########## Receptor Hydrophobic:             0.000000
##########         Total Energy:           -71.836426
##########        Ligand Charge:            -1.000000
##########            Arbitrary:    +999.9990
##########        Ligand Energy:             0.000000

@<TRIPOS>MOLECULE
 ZINC001599720461      none
   44    46    -1     0     0



@<TRIPOS>ATOM
      1 C1        -48.8991   -33.1154     4.7863 C.3        1  LIG1   0.0200
      2 O1        -49.2081   -34.2961     4.0433 O.3        1  LIG1  -0.3000
      3 C2        -48.2088   -35.1980     3.8767 C.2        1  LIG1   0.1600
      4 C3        -46.9608   -34.9628     4.4164 C.2        1  LIG1  -0.2000
      5 C4        -45.9439   -35.9117     4.2298 C.2        1  LIG1   0.2900
      6 N1        -44.6730   -35.9413     4.6317 N.2        1  LIG1  -0.5000
      7 C5        -44.0943   -37.0543     4.2107 C.2        1  LIG1   0.1500
      8 C6        -45.0299   -37.7878     3.4998 C.2        1  LIG1  -0.1600
      9 C7        -44.8279   -39.0434     2.8770 C.2        1  LIG1   0.6000
     10 O2        -43.9865   -39.1620     2.0042 O.2        1  LIG1  -0.5100
     11 N2        -45.5666   -40.1072     3.2497 N.am       1  LIG1  -0.6800
     12 C8        -45.3671   -41.3471     2.6347 C.ar       1  LIG1   0.1200
     13 C9        -45.6066   -42.5199     3.3391 C.ar       1  LIG1  -0.1100
     14 C10       -45.4090   -43.7429     2.7285 C.ar       1  LIG1  -0.1000
     15 C11       -44.9727   -43.8005     1.4175 C.ar       1  LIG1  -0.0700
     16 C12       -44.7578   -45.1367     0.7547 C.3        1  LIG1  -0.0600
     17 C13       -43.3163   -45.5946     0.9854 C.3        1  LIG1  -0.1500
     18 H1        -42.6449   -44.7409     0.8941 H          1  LIG1   0.0600
     19 C14       -43.1902   -46.1950     2.3870 C.3        1  LIG1  -0.1200
     20 C15       -42.9492   -46.6347    -0.0415 C.2        1  LIG1   0.5000
     21 O3        -42.0199   -46.4360    -0.8052 O.co2      1  LIG1  -0.7000
     22 O4        -43.5816   -47.6749    -0.1086 O.co2      1  LIG1  -0.7000
     23 C16       -44.7338   -42.6347     0.7133 C.ar       1  LIG1  -0.1000
     24 C17       -44.9344   -41.4084     1.3162 C.ar       1  LIG1  -0.1400
     25 N3        -46.2032   -37.0500     3.5192 N.pl3      1  LIG1  -0.3600
     26 C18       -47.4352   -37.2764     2.9886 C.2        1  LIG1   0.0900
     27 C19       -48.4359   -36.3857     3.1564 C.2        1  LIG1  -0.1400
     28 H2        -49.7836   -32.4809     4.8447 H          1  LIG1   0.0600
     29 H3        -48.5829   -33.3912     5.7923 H          1  LIG1   0.0600
     30 H4        -48.0952   -32.5729     4.2887 H          1  LIG1   0.1100
     31 H5        -46.7689   -34.0591     4.9757 H          1  LIG1   0.1600
     32 H6        -43.0687   -37.3413     4.3901 H          1  LIG1   0.2000
     33 H7        -46.2366   -40.0128     3.9447 H          1  LIG1   0.3900
     34 H8        -45.9467   -42.4756     4.3631 H          1  LIG1   0.1300
     35 H9        -45.5951   -44.6553     3.2756 H          1  LIG1   0.1300
     36 H10       -45.4442   -45.8683     1.1811 H          1  LIG1   0.0700
     37 H11       -44.9431   -45.0454    -0.3156 H          1  LIG1   0.0700
     38 H12       -42.1633   -46.5213     2.5515 H          1  LIG1   0.0400
     39 H13       -43.4557   -45.4428     3.1298 H          1  LIG1   0.0500
     40 H14       -43.8617   -47.0488     2.4784 H          1  LIG1   0.0400
     41 H15       -44.3934   -42.6831    -0.3106 H          1  LIG1   0.1300
     42 H16       -44.7475   -40.4983     0.7657 H          1  LIG1   0.1200
     43 H17       -47.6167   -38.1831     2.4307 H          1  LIG1   0.1700
     44 H18       -49.4085   -36.5801     2.7289 H          1  LIG1   0.1700
@<TRIPOS>BOND
     1    1    2 1
     2    1   28 1
     3    1   29 1
     4    1   30 1
     5    2    3 1
     6    3   27 1
     7    3    4 2
     8    4    5 1
     9    4   31 1
    10    5   25 1
    11    5    6 2
    12    6    7 1
    13    7    8 2
    14    7   32 1
    15    8    9 1
    16    8   25 1
    17    9   10 2
    18    9   11 am
    19   11   12 1
    20   11   33 1
    21   12   24 ar
    22   12   13 ar
    23   13   14 ar
    24   13   34 1
    25   14   15 ar
    26   14   35 1
    27   15   16 1
    28   15   23 ar
    29   16   17 1
    30   16   36 1
    31   16   37 1
    32   17   18 1
    33   17   19 1
    34   17   20 1
    35   19   38 1
    36   19   39 1
    37   19   40 1
    38   20   21 2
    39   20   22 1
    40   23   24 ar
    41   23   41 1
    42   24   42 1
    43   25   26 1
    44   26   27 2
    45   26   43 1
    46   27   44 1
##########                 Name:     ZINC000860836796
##########          Protonation:                 none
##########               SMILES:   C[C@]1(COC(=O)C2=CC=C([N-]S(C)(=O)=O)N=C2)C[C@@]1(F)Cl
##########            Long Name:   NO_LONG_NAME
##########          FlexRecCode: 1
##########               Number:                 5750
##########   Ligand Source File: /bks/ex5/3D/ED/ADRM/EDADRM.xavl.db2.gz
##########                 Rank:                    1
##########               Setnum:                  178
##########             Matchnum:                    1
##########                Cloud:                    1
##########        Electrostatic:           -68.277092
##########                 Gist:             0.000000
##########        Van der Waals:           -23.011566
##########  Ligand Polar Desolv:            27.186211
########## Ligand Apolar Desolv:            -4.214207
##########      Internal Energy:             0.000000
##########      Receptor Energy:             0.000000
########## Receptor Desolvation:             0.000000
########## Receptor Hydrophobic:             0.000000
##########         Total Energy:           -68.316650
##########        Ligand Charge:            -1.000000
##########            Arbitrary:    +999.9990
##########        Ligand Energy:             0.000000

@<TRIPOS>MOLECULE
 ZINC000860836796      none
   34    35    -1     0     0



@<TRIPOS>ATOM
      1 C1        -45.6508   -44.8304     5.7450 C.3        1  LIG1  -0.1200
      2 C2        -46.5337   -43.7739     5.0777 C.3        1  LIG1  -0.1000
      3 C3        -45.9004   -43.0344     3.8974 C.3        1  LIG1   0.1000
      4 O1        -45.5498   -43.9885     2.8605 O.3        1  LIG1  -0.3500
      5 C4        -44.4917   -43.6854     2.0829 C.2        1  LIG1   0.5300
      6 O2        -43.8789   -42.6523     2.2664 O.2        1  LIG1  -0.5400
      7 C5        -44.0777   -44.6073     1.0099 C.ar       1  LIG1  -0.3100
      8 C6        -44.7817   -45.8008     0.7855 C.ar       1  LIG1   0.0100
      9 C7        -44.3619   -46.6269    -0.2218 C.ar       1  LIG1  -0.2300
     10 C8        -43.2570   -46.2627    -0.9893 C.ar       1  LIG1   0.4800
     11 N1        -42.8301   -47.0958    -2.0091 N.2        1  LIG1  -1.0700
     12 S1        -42.3549   -48.6452    -1.6685 S.o2       1  LIG1   2.5500
     13 C9        -40.9641   -48.4500    -0.5204 C.3        1  LIG1  -0.6500
     14 O3        -43.4734   -49.2167    -1.0042 O.2        1  LIG1  -1.0100
     15 O4        -41.9041   -49.1556    -2.9157 O.2        1  LIG1  -1.0100
     16 N2        -42.6089   -45.1291    -0.7567 N.ar       1  LIG1  -0.6000
     17 C10       -42.9827   -44.3034     0.1980 C.ar       1  LIG1   0.2200
     18 C11       -47.4923   -42.9863     5.9731 C.3        1  LIG1  -0.1500
     19 C12       -48.0378   -44.0473     5.0151 C.3        1  LIG1   0.1000
     20 F1        -48.5005   -45.2441     5.5724 F          1  LIG1  -0.1400
     21 Cl1       -48.9284   -43.4727     3.5565 Cl         1  LIG1  -0.1100
     22 H1        -44.6110   -44.5049     5.7175 H          1  LIG1   0.0700
     23 H2        -45.9629   -44.9631     6.7809 H          1  LIG1   0.0900
     24 H3        -45.7498   -45.7760     5.2119 H          1  LIG1   0.0700
     25 H4        -46.6106   -42.3097     3.4994 H          1  LIG1   0.0800
     26 H5        -45.0022   -42.5163     4.2332 H          1  LIG1   0.0800
     27 H6        -45.6350   -46.0613     1.3941 H          1  LIG1   0.1300
     28 H7        -44.8819   -47.5526    -0.4198 H          1  LIG1   0.1300
     29 H8        -40.5840   -49.4323    -0.2397 H          1  LIG1   0.1200
     30 H9        -40.1717   -47.8782    -1.0035 H          1  LIG1   0.1000
     31 H10       -41.3008   -47.9221     0.3718 H          1  LIG1   0.1200
     32 H11       -42.4329   -43.3881     0.3605 H          1  LIG1   0.1500
     33 H12       -47.4939   -43.2209     7.0376 H          1  LIG1   0.1300
     34 H13       -47.6718   -41.9411     5.7215 H          1  LIG1   0.1300
@<TRIPOS>BOND
     1    1    2 1
     2    1   22 1
     3    1   23 1
     4    1   24 1
     5    2   19 1
     6    2    3 1
     7    2   18 1
     8    3    4 1
     9    3   25 1
    10    3   26 1
    11    4    5 1
    12    5    6 2
    13    5    7 1
    14    7   17 ar
    15    7    8 ar
    16    8    9 ar
    17    8   27 1
    18    9   10 ar
    19    9   28 1
    20   10   11 1
    21   10   16 ar
    22   11   12 1
    23   12   13 1
    24   12   14 2
    25   12   15 2
    26   13   29 1
    27   13   30 1
    28   13   31 1
    29   16   17 ar
    30   17   32 1
    31   18   19 1
    32   18   33 1
    33   18   34 1
    34   19   20 1
    35   19   21 1
##########                 Name:     ZINC000738832478
##########          Protonation:                 none
##########               SMILES:   CC1=C(C(=O)NC2=NN=C(CCCC(=O)[O-])S2)SC(C2=CC=CC=C2)=N1
##########            Long Name:   NO_LONG_NAME
##########          FlexRecCode: 1
##########               Number:                 8357
##########   Ligand Source File: /bks/ex7/3D/GH/ADRM/GHADRM.xbe.db2.gz
##########                 Rank:                    1
##########               Setnum:                  132
##########             Matchnum:                    1
##########                Cloud:                    1
##########        Electrostatic:           -67.422882
##########                 Gist:             0.000000
##########        Van der Waals:           -34.160976
##########  Ligand Polar Desolv:            38.925636
########## Ligand Apolar Desolv:            -5.492822
##########      Internal Energy:             0.000000
##########      Receptor Energy:             0.000000
########## Receptor Desolvation:             0.000000
########## Receptor Hydrophobic:             0.000000
##########         Total Energy:           -68.151047
##########        Ligand Charge:            -1.000000
##########            Arbitrary:    +999.9990
##########        Ligand Energy:             0.000000

@<TRIPOS>MOLECULE
 ZINC000013960574      none
   50    53     0     0     0



@<TRIPOS>ATOM
      1 C1        -40.6111   -38.9279    -2.8543 C.3        1  LIG1  -0.1200
      2 C2        -41.3577   -39.9368    -2.0201 C.ar       1  LIG1  -0.0700
      3 C3        -42.7189   -39.7938    -1.8208 C.ar       1  LIG1  -0.1200
      4 C4        -43.4077   -40.7152    -1.0580 C.ar       1  LIG1  -0.0800
      5 C5        -42.7294   -41.7906    -0.4884 C.ar       1  LIG1  -0.0300
      6 C6        -43.4650   -42.7848     0.3323 C.2        1  LIG1   0.1500
      7 N1        -43.5521   -44.0752     0.0854 N.2        1  LIG1  -0.2600
      8 N2        -44.3303   -44.6665     1.0885 N.pl3      1  LIG1  -0.3600
      9 C7        -44.6715   -46.0877     1.1889 C.3        1  LIG1   0.1700
     10 C8        -43.4414   -46.9191     0.9310 C.ar       1  LIG1  -0.1200
     11 C9        -42.6214   -47.2846     1.9820 C.ar       1  LIG1  -0.0400
     12 C10       -41.4929   -48.0475     1.7454 C.ar       1  LIG1  -0.1200
     13 C11       -41.1843   -48.4441     0.4580 C.ar       1  LIG1  -0.0400
     14 C12       -42.0055   -48.0799    -0.5932 C.ar       1  LIG1  -0.0400
     15 N3        -41.6752   -48.5049    -1.9720 N.pl3      1  LIG1   0.0300
     16 O1        -40.6806   -49.1762    -2.1806 O.2        1  LIG1  -0.1600
     17 O2        -42.3981   -48.1835    -2.8981 O.2        1  LIG1  -0.1500
     18 C13       -43.1360   -47.3210    -0.3561 C.ar       1  LIG1  -0.0300
     19 C14       -44.7138   -43.6860     1.9561 C.2        1  LIG1   0.1700
     20 C15       -45.5481   -43.8650     3.1650 C.ar       1  LIG1  -0.0600
     21 C16       -46.7672   -43.1964     3.2800 C.ar       1  LIG1  -0.1000
     22 C17       -47.5407   -43.3678     4.4095 C.ar       1  LIG1  -0.1200
     23 C18       -47.1090   -44.2005     5.4274 C.ar       1  LIG1  -0.0600
     24 C19       -47.9584   -44.3832     6.6587 C.3        1  LIG1  -0.1200
     25 C20       -45.9018   -44.8663     5.3188 C.ar       1  LIG1  -0.1100
     26 C21       -45.1217   -44.7077     4.1918 C.ar       1  LIG1  -0.0700
     27 C22       -44.1829   -42.5109     1.5092 C.2        1  LIG1  -0.2200
     28 Br1       -44.3873   -40.8153     2.3210 Br         1  LIG1   0.0000
     29 C23       -41.3583   -41.9297    -0.6925 C.ar       1  LIG1  -0.0800
     30 C24       -40.6803   -41.0054    -1.4614 C.ar       1  LIG1  -0.1200
     31 H1        -41.3042   -38.1643    -3.2073 H          1  LIG1   0.0700
     32 H2        -39.8333   -38.4611    -2.2500 H          1  LIG1   0.0700
     33 H3        -40.1559   -39.4286    -3.7089 H          1  LIG1   0.0700
     34 H4        -43.2438   -38.9596    -2.2624 H          1  LIG1   0.1300
     35 H5        -44.4707   -40.6024    -0.9028 H          1  LIG1   0.1300
     36 H6        -45.0511   -46.3006     2.1883 H          1  LIG1   0.1100
     37 H7        -45.4358   -46.3309     0.4507 H          1  LIG1   0.1200
     38 H8        -42.8623   -46.9742     2.9880 H          1  LIG1   0.1500
     39 H9        -40.8520   -48.3326     2.5665 H          1  LIG1   0.1500
     40 H10       -40.3032   -49.0407     0.2733 H          1  LIG1   0.1600
     41 H11       -43.7770   -47.0359    -1.1773 H          1  LIG1   0.1500
     42 H12       -47.1043   -42.5455     2.4868 H          1  LIG1   0.1200
     43 H13       -48.4846   -42.8508     4.4998 H          1  LIG1   0.1300
     44 H14       -47.4625   -45.0688     7.3440 H          1  LIG1   0.0800
     45 H15       -48.1025   -43.4197     7.1471 H          1  LIG1   0.0700
     46 H16       -48.9285   -44.7932     6.3728 H          1  LIG1   0.0700
     47 H17       -45.5708   -45.5149     6.1164 H          1  LIG1   0.1300
     48 H18       -44.1792   -45.2283     4.1084 H          1  LIG1   0.1300
     49 H19       -40.8277   -42.7615    -0.2532 H          1  LIG1   0.1300
     50 H20       -39.6174   -41.1123    -1.6201 H          1  LIG1   0.1300
@<TRIPOS>BOND
     1    1    2 1
     2    1   31 1
     3    1   32 1
     4    1   33 1
     5    2   30 ar
     6    2    3 ar
     7    3    4 ar
     8    3   34 1
     9    4    5 ar
    10    4   35 1
    11    5    6 1
    12    5   29 ar
    13    6   27 1
    14    6    7 2
    15    7    8 1
    16    8    9 1
    17    8   19 1
    18    9   10 1
    19    9   36 1
    20    9   37 1
    21   10   18 ar
    22   10   11 ar
    23   11   12 ar
    24   11   38 1
    25   12   13 ar
    26   12   39 1
    27   13   14 ar
    28   13   40 1
    29   14   15 1
    30   14   18 ar
    31   15   16 2
    32   15   17 2
    33   18   41 1
    34   19   20 1
    35   19   27 2
    36   20   26 ar
    37   20   21 ar
    38   21   22 ar
    39   21   42 1
    40   22   23 ar
    41   22   43 1
    42   23   24 1
    43   23   25 ar
    44   24   44 1
    45   24   45 1
    46   24   46 1
    47   25   26 ar
    48   25   47 1
    49   26   48 1
    50   27   28 1
    51   29   30 ar
    52   29   49 1
    53   30   50 1
##########                 Name:     ZINC001334183377
##########          Protonation:                 none
##########               SMILES:   O=C([O-])CCN(CC1=CC=CC=C1)C(=O)CC1(C(F)(F)F)CC1
##########            Long Name:   NO_LONG_NAME
##########          FlexRecCode: 1
##########               Number:                46416
##########   Ligand Source File: /bks/ex5/3D/EG/ADRM/EGADRM.xbr.db2.gz
##########                 Rank:                    1
##########               Setnum:                  123
##########             Matchnum:                    1
##########                Cloud:                    1
##########        Electrostatic:           -73.198563
##########                 Gist:             0.000000
##########        Van der Waals:           -15.233057
##########  Ligand Polar Desolv:            29.384501
########## Ligand Apolar Desolv:            -7.933753
##########      Internal Energy:             0.000000
##########      Receptor Energy:             0.000000
########## Receptor Desolvation:             0.000000
########## Receptor Hydrophobic:             0.000000
##########         Total Energy:           -66.980865
##########        Ligand Charge:            -1.000000
##########            Arbitrary:    +999.9990
##########        Ligand Energy:             0.000000

@<TRIPOS>MOLECULE
 ZINC001334183377      none
   40    41    -1     0     0



@<TRIPOS>ATOM
      1 O1        -42.0873   -46.2539    -0.3652 O.co2      1  LIG1  -0.7000
      2 C1        -42.6780   -45.5188    -1.1379 C.2        1  LIG1   0.4900
      3 O2        -42.0545   -44.8787    -1.9673 O.co2      1  LIG1  -0.7000
      4 C2        -44.1793   -45.4063    -1.0720 C.3        1  LIG1  -0.2000
      5 C3        -44.5700   -43.9544    -0.7884 C.3        1  LIG1   0.1300
      6 N1        -43.9923   -43.5341     0.4904 N.am       1  LIG1  -0.6000
      7 C4        -44.3465   -44.2430     1.7226 C.3        1  LIG1   0.1500
      8 C5        -45.5570   -43.5955     2.3444 C.ar       1  LIG1  -0.1000
      9 C6        -45.3999   -42.5636     3.2507 C.ar       1  LIG1  -0.1000
     10 C7        -46.5102   -41.9697     3.8210 C.ar       1  LIG1  -0.1300
     11 C8        -47.7776   -42.4072     3.4847 C.ar       1  LIG1  -0.1200
     12 C9        -47.9347   -43.4386     2.5777 C.ar       1  LIG1  -0.1300
     13 C10       -46.8245   -44.0296     2.0042 C.ar       1  LIG1  -0.0900
     14 C11       -43.1348   -42.4952     0.5336 C.2        1  LIG1   0.5200
     15 O3        -42.6565   -42.1472     1.5923 O.2        1  LIG1  -0.5400
     16 C12       -42.7703   -41.7659    -0.7340 C.3        1  LIG1  -0.1100
     17 C13       -41.7887   -40.6383    -0.4093 C.3        1  LIG1  -0.1900
     18 C14       -40.3133   -41.0410    -0.3613 C.3        1  LIG1   0.4900
     19 F1        -39.9288   -41.5519    -1.6057 F          1  LIG1  -0.1800
     20 F2        -39.5337   -39.9202    -0.0562 F          1  LIG1  -0.1900
     21 F3        -40.1286   -42.0191     0.6216 F          1  LIG1  -0.1700
     22 C15       -42.1229   -39.2390    -0.9299 C.3        1  LIG1  -0.1500
     23 C16       -42.2564   -39.5522     0.5617 C.3        1  LIG1  -0.1200
     24 H1        -44.6091   -45.7191    -2.0235 H          1  LIG1   0.0600
     25 H2        -44.5570   -46.0466    -0.2748 H          1  LIG1   0.0600
     26 H3        -44.1922   -43.3143    -1.5857 H          1  LIG1   0.0800
     27 H4        -45.6558   -43.8731    -0.7407 H          1  LIG1   0.0800
     28 H5        -44.5701   -45.2845     1.4912 H          1  LIG1   0.0900
     29 H6        -43.5110   -44.1974     2.4211 H          1  LIG1   0.0900
     30 H7        -44.4097   -42.2216     3.5135 H          1  LIG1   0.1200
     31 H8        -46.3875   -41.1639     4.5296 H          1  LIG1   0.1200
     32 H9        -48.6450   -41.9437     3.9308 H          1  LIG1   0.1200
     33 H10       -48.9248   -43.7807     2.3152 H          1  LIG1   0.1200
     34 H11       -46.9472   -44.8354     1.2955 H          1  LIG1   0.1300
     35 H12       -42.3060   -42.4618    -1.4327 H          1  LIG1   0.1100
     36 H13       -43.6703   -41.3462    -1.1832 H          1  LIG1   0.1100
     37 H14       -41.2917   -38.6051    -1.2387 H          1  LIG1   0.1100
     38 H15       -43.0421   -39.1218    -1.5039 H          1  LIG1   0.1200
     39 H16       -43.2634   -39.6412     0.9691 H          1  LIG1   0.1100
     40 H17       -41.5131   -39.1244     1.2343 H          1  LIG1   0.1100
@<TRIPOS>BOND
     1    1    2 2
     2    2    3 1
     3    2    4 1
     4    4    5 1
     5    4   24 1
     6    4   25 1
     7    5    6 1
     8    5   26 1
     9    5   27 1
    10    6    7 1
    11    6   14 am
    12    7    8 1
    13    7   28 1
    14    7   29 1
    15    8   13 ar
    16    8    9 ar
    17    9   10 ar
    18    9   30 1
    19   10   11 ar
    20   10   31 1
    21   11   12 ar
    22   11   32 1
    23   12   13 ar
    24   12   33 1
    25   13   34 1
    26   14   15 2
    27   14   16 1
    28   16   17 1
    29   16   35 1
    30   16   36 1
    31   17   23 1
    32   17   18 1
    33   17   22 1
    34   18   19 1
    35   18   20 1
    36   18   21 1
    37   22   23 1
    38   22   37 1
    39   22   38 1
    40   23   39 1
    41   23   40 1
##########                 Name:     ZINC000908420006
##########          Protonation:                 none
##########               SMILES:   CC[C@H](O)[C@H](C)C(=O)N[C@H](CC(=O)[O-])C1=CC=C(C(F)(F)F)C=C1
##########            Long Name:   NO_LONG_NAME
##########          FlexRecCode: 1
##########               Number:                15618
##########   Ligand Source File: /bks/ex1/3D/EF/ADRM/EFADRM.xau.db2.gz
##########                 Rank:                    1
##########               Setnum:                   24
##########             Matchnum:                    1
##########                Cloud:                    1
##########        Electrostatic:           -68.732040
##########                 Gist:             0.000000
##########        Van der Waals:           -25.076950
##########  Ligand Polar Desolv:            33.506760
########## Ligand Apolar Desolv:            -5.747481
##########      Internal Energy:             0.000000
##########      Receptor Energy:             0.000000
########## Receptor Desolvation:             0.000000
########## Receptor Hydrophobic:             0.000000
##########         Total Energy:           -66.049713
##########        Ligand Charge:            -1.000000
##########            Arbitrary:    +999.9990
##########        Ligand Energy:             0.000000

@<TRIPOS>MOLECULE
 ZINC000849217829      none
   44    45    -1     0     0



@<TRIPOS>ATOM
      1 O1        -43.6422   -46.5439    -2.0263 O.co2      1  LIG1  -0.6900
      2 C1        -43.0360   -45.7639    -1.3119 C.2        1  LIG1   0.4900
      3 O2        -42.0537   -46.1395    -0.6951 O.co2      1  LIG1  -0.7000
      4 C2        -43.4971   -44.3339    -1.1958 C.3        1  LIG1  -0.2000
      5 C3        -43.8363   -44.0242     0.2635 C.3        1  LIG1   0.1900
      6 H1        -42.9506   -44.1716     0.8816 H          1  LIG1   0.0800
      7 C4        -44.9504   -44.9595     0.7379 C.3        1  LIG1  -0.1000
      8 C5        -45.2844   -44.6545     2.1753 C.ar       1  LIG1  -0.0600
      9 C6        -44.6136   -45.3053     3.1939 C.ar       1  LIG1  -0.1100
     10 C7        -44.9200   -45.0255     4.5125 C.ar       1  LIG1  -0.1100
     11 C8        -45.8969   -44.0945     4.8125 C.ar       1  LIG1  -0.1200
     12 C9        -46.5671   -43.4432     3.7940 C.ar       1  LIG1  -0.1100
     13 C10       -46.2577   -43.7198     2.4755 C.ar       1  LIG1  -0.1000
     14 N1        -44.2846   -42.6341     0.3764 N.pl3      1  LIG1  -1.0900
     15 S1        -43.1849   -41.4303     0.6659 S.o2       1  LIG1   2.6100
     16 O3        -43.9402   -40.4125     1.3082 O.2        1  LIG1  -0.9900
     17 O4        -42.1175   -42.0850     1.3379 O.2        1  LIG1  -0.9500
     18 C11       -42.6613   -40.8890    -0.9843 C.3        1  LIG1  -0.5900
     19 C12       -41.6322   -39.7648    -0.8498 C.3        1  LIG1  -0.0800
     20 C13       -41.1973   -39.3152    -2.2209 C.ar       1  LIG1  -0.0700
     21 C14       -40.1193   -39.9226    -2.8372 C.ar       1  LIG1  -0.0800
     22 C15       -39.7194   -39.5111    -4.0945 C.ar       1  LIG1  -0.1500
     23 C16       -40.3994   -38.4903    -4.7370 C.ar       1  LIG1   0.0900
     24 F1        -40.0099   -38.0875    -5.9663 F          1  LIG1  -0.1400
     25 C17       -41.4795   -37.8830    -4.1188 C.ar       1  LIG1  -0.1500
     26 C18       -41.8803   -38.2996    -2.8635 C.ar       1  LIG1  -0.0800
     27 H2        -42.7033   -43.6676    -1.5337 H          1  LIG1   0.0600
     28 H3        -44.3828   -44.1863    -1.8139 H          1  LIG1   0.0700
     29 H4        -45.8362   -44.8122     0.1198 H          1  LIG1   0.0700
     30 H5        -44.6168   -45.9938     0.6539 H          1  LIG1   0.0800
     31 H6        -43.8504   -46.0326     2.9595 H          1  LIG1   0.1100
     32 H7        -44.3965   -45.5344     5.3082 H          1  LIG1   0.1100
     33 H8        -46.1368   -43.8766     5.8427 H          1  LIG1   0.1100
     34 H9        -47.3306   -42.7161     4.0285 H          1  LIG1   0.1100
     35 H10       -46.7813   -43.2109     1.6797 H          1  LIG1   0.1100
     36 H11       -45.2256   -42.4187     0.2816 H          1  LIG1   0.4100
     37 H12       -42.2149   -41.7284    -1.5174 H          1  LIG1   0.1400
     38 H13       -43.5264   -40.5252    -1.5389 H          1  LIG1   0.1500
     39 H14       -42.0787   -38.9255    -0.3167 H          1  LIG1   0.0800
     40 H15       -40.7671   -40.1287    -0.2954 H          1  LIG1   0.0800
     41 H16       -39.5890   -40.7187    -2.3360 H          1  LIG1   0.1300
     42 H17       -38.8768   -39.9853    -4.5755 H          1  LIG1   0.1300
     43 H18       -42.0104   -37.0866    -4.6189 H          1  LIG1   0.1300
     44 H19       -42.7228   -37.8263    -2.3814 H          1  LIG1   0.1300
@<TRIPOS>BOND
     1    1    2 2
     2    2    3 1
     3    2    4 1
     4    4    5 1
     5    4   27 1
     6    4   28 1
     7    5    6 1
     8    5    7 1
     9    5   14 1
    10    7    8 1
    11    7   29 1
    12    7   30 1
    13    8   13 ar
    14    8    9 ar
    15    9   10 ar
    16    9   31 1
    17   10   11 ar
    18   10   32 1
    19   11   12 ar
    20   11   33 1
    21   12   13 ar
    22   12   34 1
    23   13   35 1
    24   14   15 1
    25   14   36 1
    26   15   16 2
    27   15   17 2
    28   15   18 1
    29   18   19 1
    30   18   37 1
    31   18   38 1
    32   19   20 1
    33   19   39 1
    34   19   40 1
    35   20   26 ar
    36   20   21 ar
    37   21   22 ar
    38   21   41 1
    39   22   23 ar
    40   22   42 1
    41   23   24 1
    42   23   25 ar
    43   25   26 ar
    44   25   43 1
    45   26   44 1
##########                 Name:     ZINC000262213292
##########          Protonation:                 none
##########               SMILES:   C[C@H](CN(C(=O)CCC1=CC=C2C=CC=CC2=C1)C1CC1)C(=O)[O-]
##########            Long Name:   NO_LONG_NAME
##########          FlexRecCode: 1
##########               Number:                45259
##########   Ligand Source File: /bks/ex5/3D/EG/ADRM/EGADRM.xbx.db2.gz
##########                 Rank:                    1
##########               Setnum:                  152
##########             Matchnum:                    1
##########                Cloud:                    1
##########        Electrostatic:           -66.458923
##########                 Gist:             0.000000
##########        Van der Waals:           -24.701195
##########  Ligand Polar Desolv:            32.221561
########## Ligand Apolar Desolv:            -9.270498
##########      Internal Energy:             0.000000
##########      Receptor Energy:             0.000000
########## Receptor Desolvation:             0.000000
########## Receptor Hydrophobic:             0.000000
##########         Total Energy:           -68.209053
##########        Ligand Charge:            -1.000000
##########            Arbitrary:    +999.9990
##########        Ligand Energy:             0.000000

@<TRIPOS>MOLECULE
 ZINC000262213292      none
   46    48    -1     0     0



@<TRIPOS>ATOM
      1 C1        -43.2030   -46.0175     2.4811 C.3        1  LIG1  -0.1200
      2 C2        -43.3813   -45.2662     1.1601 C.3        1  LIG1  -0.1700
      3 H1        -42.6825   -44.4308     1.1201 H          1  LIG1   0.0600
      4 C3        -44.8140   -44.7378     1.0635 C.3        1  LIG1   0.1400
      5 N1        -44.9356   -43.5092     1.8520 N.am       1  LIG1  -0.5900
      6 C4        -44.1729   -42.4388     1.5537 C.2        1  LIG1   0.5200
      7 O1        -43.8424   -41.6669     2.4288 O.2        1  LIG1  -0.5500
      8 C5        -43.7310   -42.2008     0.1327 C.3        1  LIG1  -0.1400
      9 C6        -42.3821   -41.4787     0.1323 C.3        1  LIG1  -0.0600
     10 C7        -41.9403   -41.2408    -1.2889 C.ar       1  LIG1  -0.0700
     11 C8        -42.3114   -40.0634    -1.9347 C.ar       1  LIG1  -0.1100
     12 C9        -41.9291   -39.8174    -3.2178 C.ar       1  LIG1  -0.1100
     13 C10       -41.1486   -40.7629    -3.9041 C.ar       1  LIG1  -0.0600
     14 C11       -40.7343   -40.5440    -5.2292 C.ar       1  LIG1  -0.1000
     15 C12       -39.9787   -41.4824    -5.8620 C.ar       1  LIG1  -0.1200
     16 C13       -39.6076   -42.6603    -5.2158 C.ar       1  LIG1  -0.1200
     17 C14       -39.9901   -42.9065    -3.9332 C.ar       1  LIG1  -0.1100
     18 C15       -40.7712   -41.9608    -3.2469 C.ar       1  LIG1  -0.0500
     19 C16       -41.1802   -42.1769    -1.9202 C.ar       1  LIG1  -0.1100
     20 C17       -45.8862   -43.4441     2.9649 C.3        1  LIG1   0.0700
     21 C18       -46.8591   -42.2638     2.9947 C.3        1  LIG1  -0.1600
     22 C19       -47.3659   -43.6641     2.6438 C.3        1  LIG1  -0.1900
     23 C20       -43.1123   -46.2020     0.0100 C.2        1  LIG1   0.5000
     24 O2        -42.2187   -45.9539    -0.7815 O.co2      1  LIG1  -0.7000
     25 O3        -43.7881   -47.2072    -0.1290 O.co2      1  LIG1  -0.7000
     26 H2        -43.9018   -46.8530     2.5212 H          1  LIG1   0.0500
     27 H3        -42.1823   -46.3939     2.5501 H          1  LIG1   0.0400
     28 H4        -43.3976   -45.3406     3.3132 H          1  LIG1   0.0500
     29 H5        -45.0534   -44.5259     0.0214 H          1  LIG1   0.0800
     30 H6        -45.5045   -45.4874     1.4498 H          1  LIG1   0.0800
     31 H7        -43.6319   -43.1565    -0.3818 H          1  LIG1   0.1000
     32 H8        -44.4718   -41.5872    -0.3802 H          1  LIG1   0.1000
     33 H9        -42.4814   -40.5229     0.6468 H          1  LIG1   0.0800
     34 H10       -41.6415   -42.0923     0.6450 H          1  LIG1   0.0800
     35 H11       -42.9116   -39.3351    -1.4098 H          1  LIG1   0.1200
     36 H12       -42.2245   -38.9004    -3.7060 H          1  LIG1   0.1300
     37 H13       -41.0146   -39.6363    -5.7426 H          1  LIG1   0.1300
     38 H14       -39.6619   -41.3119    -6.8803 H          1  LIG1   0.1200
     39 H15       -39.0077   -43.3889    -5.7411 H          1  LIG1   0.1200
     40 H16       -39.6954   -43.8238    -3.4454 H          1  LIG1   0.1300
     41 H17       -40.8960   -43.0827    -1.4054 H          1  LIG1   0.1300
     42 H18       -45.5176   -43.8173     3.9203 H          1  LIG1   0.1100
     43 H19       -47.1308   -41.8600     3.9701 H          1  LIG1   0.1000
     44 H20       -46.7919   -41.5355     2.1865 H          1  LIG1   0.1000
     45 H21       -47.6320   -43.8571     1.6046 H          1  LIG1   0.1000
     46 H22       -47.9708   -44.1816     3.3882 H          1  LIG1   0.1000
@<TRIPOS>BOND
     1    1    2 1
     2    1   26 1
     3    1   27 1
     4    1   28 1
     5    2    3 1
     6    2    4 1
     7    2   23 1
     8    4    5 1
     9    4   29 1
    10    4   30 1
    11    5    6 am
    12    5   20 1
    13    6    7 2
    14    6    8 1
    15    8    9 1
    16    8   31 1
    17    8   32 1
    18    9   10 1
    19    9   33 1
    20    9   34 1
    21   10   19 ar
    22   10   11 ar
    23   11   12 ar
    24   11   35 1
    25   12   13 ar
    26   12   36 1
    27   13   18 ar
    28   13   14 ar
    29   14   15 ar
    30   14   37 1
    31   15   16 ar
    32   15   38 1
    33   16   17 ar
    34   16   39 1
    35   17   18 ar
    36   17   40 1
    37   18   19 ar
    38   19   41 1
    39   20   22 1
    40   20   21 1
    41   20   42 1
    42   21   22 1
    43   21   43 1
    44   21   44 1
    45   22   45 1
    46   22   46 1
    47   23   24 2
    48   23   25 1
##########                 Name:     ZINC000824020188
##########          Protonation:                 none
##########               SMILES:   CC(C)(NC(=O)N[C@H]1CCC[C@H]1CNC(=O)[O-])C1=CC=CC=C1
##########            Long Name:   NO_LONG_NAME
##########          FlexRecCode: 1
##########               Number:                 3085
##########   Ligand Source File: /bks/ex6/3D/DF/ADRM/DFADRM.xbk.db2.gz
##########                 Rank:                    1
##########               Setnum:                  156
##########             Matchnum:                    1
##########                Cloud:                    1
##########        Electrostatic:           -79.496674
##########                 Gist:             0.000000
##########        Van der Waals:           -16.677160
##########  Ligand Polar Desolv:            34.060883
########## Ligand Apolar Desolv:            -3.909160
##########      Internal Energy:             0.000000
##########      Receptor Energy:             0.000000
########## Receptor Desolvation:             0.000000
########## Receptor Hydrophobic:             0.000000
##########         Total Energy:           -66.022110
##########        Ligand Charge:            -1.000000
##########            Arbitrary:    +999.9990
##########        Ligand Energy:             0.000000

@<TRIPOS>MOLECULE
 ZINC000932266300      none
   43    45     0     0     0



@<TRIPOS>ATOM
      1 C1        -39.7967   -49.7631     1.4946 C.3        1  LIG1   0.1000
      2 N1        -40.6963   -48.6805     1.0885 N.pl3      1  LIG1  -0.2000
      3 N2        -40.8280   -48.1984    -0.1001 N.2        1  LIG1   0.0100
      4 N3        -41.7057   -47.2590    -0.0903 N.2        1  LIG1  -0.2800
      5 C2        -42.1847   -47.0983     1.1439 C.2        1  LIG1   0.4400
      6 N4        -43.1547   -46.1715     1.5408 N.am       1  LIG1  -0.6300
      7 C3        -43.6955   -45.3323     0.6353 C.2        1  LIG1   0.7200
      8 O1        -43.3403   -45.3809    -0.5266 O.2        1  LIG1  -0.5200
      9 N5        -44.6298   -44.4395     1.0176 N.am       1  LIG1  -0.6100
     10 C4        -44.7516   -43.1600     0.3146 C.3        1  LIG1   0.1400
     11 C5        -43.8652   -42.1368     0.9767 C.ar       1  LIG1  -0.1200
     12 C6        -44.3579   -41.3594     2.0082 C.ar       1  LIG1  -0.1100
     13 C7        -43.5449   -40.4208     2.6157 C.ar       1  LIG1  -0.1200
     14 C8        -42.2390   -40.2599     2.1918 C.ar       1  LIG1  -0.1100
     15 C9        -41.7460   -41.0380     1.1610 C.ar       1  LIG1  -0.1200
     16 C10       -42.5577   -41.9794     0.5565 C.ar       1  LIG1  -0.1000
     17 C11       -45.5238   -44.7486     2.1364 C.3        1  LIG1   0.1100
     18 C12       -44.8928   -44.2626     3.4428 C.3        1  LIG1   0.1600
     19 H1        -44.4147   -43.2970     3.2782 H          1  LIG1   0.1200
     20 O2        -43.9160   -45.2093     3.8808 O.3        1  LIG1  -0.5400
     21 C13       -45.9623   -44.1209     4.4949 C.2        1  LIG1  -0.2200
     22 C14       -46.3446   -45.0819     5.3372 C.2        1  LIG1  -0.1300
     23 C15       -47.3479   -44.7194     6.2192 C.2        1  LIG1  -0.1400
     24 C16       -47.7804   -43.4638     6.0931 C.2        1  LIG1  -0.2100
     25 S1        -46.8921   -42.6605     4.8052 S.3        1  LIG1   0.1200
     26 N6        -41.5826   -47.9755     1.9194 N.2        1  LIG1  -0.3300
     27 H2        -39.2336   -50.1116     0.6289 H          1  LIG1   0.1000
     28 H3        -39.1057   -49.3960     2.2536 H          1  LIG1   0.1100
     29 H4        -40.3813   -50.5871     1.9037 H          1  LIG1   0.1100
     30 H5        -43.4381   -46.1327     2.4677 H          1  LIG1   0.4200
     31 H6        -44.4477   -43.2860    -0.7245 H          1  LIG1   0.1000
     32 H7        -45.7873   -42.8221     0.3519 H          1  LIG1   0.0800
     33 H8        -45.3783   -41.4851     2.3393 H          1  LIG1   0.1100
     34 H9        -43.9300   -39.8131     3.4209 H          1  LIG1   0.1200
     35 H10       -41.6039   -39.5262     2.6658 H          1  LIG1   0.1200
     36 H11       -40.7257   -40.9120     0.8297 H          1  LIG1   0.1300
     37 H12       -42.1725   -42.5873    -0.2488 H          1  LIG1   0.1200
     38 H13       -46.4802   -44.2474     1.9864 H          1  LIG1   0.1000
     39 H14       -45.6823   -45.8256     2.1879 H          1  LIG1   0.1000
     40 H15       -44.2717   -46.0930     4.0470 H          1  LIG1   0.3800
     41 H16       -45.9048   -46.0683     5.3312 H          1  LIG1   0.1400
     42 H17       -47.7503   -45.4015     6.9535 H          1  LIG1   0.1400
     43 H18       -48.5551   -43.0091     6.6927 H          1  LIG1   0.1700
@<TRIPOS>BOND
     1    1    2 1
     2    1   27 1
     3    1   28 1
     4    1   29 1
     5    2   26 1
     6    2    3 1
     7    3    4 2
     8    4    5 1
     9    5    6 1
    10    5   26 2
    11    6    7 am
    12    6   30 1
    13    7    8 2
    14    7    9 am
    15    9   10 1
    16    9   17 1
    17   10   11 1
    18   10   31 1
    19   10   32 1
    20   11   16 ar
    21   11   12 ar
    22   12   13 ar
    23   12   33 1
    24   13   14 ar
    25   13   34 1
    26   14   15 ar
    27   14   35 1
    28   15   16 ar
    29   15   36 1
    30   16   37 1
    31   17   18 1
    32   17   38 1
    33   17   39 1
    34   18   19 1
    35   18   20 1
    36   18   21 1
    37   20   40 1
    38   21   25 1
    39   21   22 2
    40   22   23 1
    41   22   41 1
    42   23   24 2
    43   23   42 1
    44   24   25 1
    45   24   43 1
##########                 Name:     ZINC000263331275
##########          Protonation:                 none
##########               SMILES:   C[C@@H]1C[C@@H](C(=O)[O-])CN(C(=O)C2(C3=CC=CC(C(F)(F)F)=C3)CC2)C1
##########            Long Name:   NO_LONG_NAME
##########          FlexRecCode: 1
##########               Number:                19273
##########   Ligand Source File: /bks/ex4/3D/FG/ADRM/FGADRM.xbn.db2.gz
##########                 Rank:                    1
##########               Setnum:                   14
##########             Matchnum:                    1
##########                Cloud:                    1
##########        Electrostatic:           -62.305706
##########                 Gist:             0.000000
##########        Van der Waals:           -23.801569
##########  Ligand Polar Desolv:            29.215103
########## Ligand Apolar Desolv:            -8.290967
##########      Internal Energy:             0.000000
##########      Receptor Energy:             0.000000
########## Receptor Desolvation:             0.000000
########## Receptor Hydrophobic:             0.000000
##########         Total Energy:           -65.183136
##########        Ligand Charge:            -1.000000
##########            Arbitrary:    +999.9990
##########        Ligand Energy:             0.000000

@<TRIPOS>MOLECULE
 ZINC000263331275      none
   44    46    -1     0     0



@<TRIPOS>ATOM
      1 C1        -45.0061   -43.8943     2.4208 C.3        1  LIG1  -0.1400
      2 C2        -45.5109   -43.6347     1.0001 C.3        1  LIG1  -0.1100
      3 H1        -46.5973   -43.7205     0.9786 H          1  LIG1   0.0800
      4 C3        -44.8985   -44.6616     0.0448 C.3        1  LIG1  -0.0900
      5 C4        -43.3722   -44.5648     0.0992 C.3        1  LIG1  -0.1700
      6 H2        -43.0326   -44.7410     1.1199 H          1  LIG1   0.0700
      7 C5        -42.7696   -45.5987    -0.8169 C.2        1  LIG1   0.5000
      8 O1        -42.0275   -46.4543    -0.3659 O.co2      1  LIG1  -0.7000
      9 O2        -43.0244   -45.5796    -2.0089 O.co2      1  LIG1  -0.6900
     10 C6        -42.9368   -43.1665    -0.3503 C.3        1  LIG1   0.1300
     11 N1        -43.6346   -42.1674     0.4705 N.am       1  LIG1  -0.6000
     12 C7        -42.9435   -41.2150     1.1277 C.2        1  LIG1   0.5600
     13 O3        -43.3722   -40.7644     2.1688 O.2        1  LIG1  -0.5500
     14 C8        -41.6383   -40.7101     0.5688 C.3        1  LIG1  -0.1200
     15 C9        -41.6975   -40.1755    -0.8390 C.ar       1  LIG1  -0.0400
     16 C10       -42.5188   -39.1048    -1.1377 C.ar       1  LIG1  -0.0700
     17 C11       -42.5731   -38.6143    -2.4291 C.ar       1  LIG1  -0.1100
     18 C12       -41.8063   -39.1951    -3.4216 C.ar       1  LIG1  -0.0700
     19 C13       -40.9833   -40.2650    -3.1225 C.ar       1  LIG1  -0.1900
     20 C14       -40.1469   -40.8977    -4.2046 C.3        1  LIG1   0.5100
     21 F1        -40.3712   -40.2342    -5.4155 F          1  LIG1  -0.1800
     22 F2        -38.7935   -40.8018    -3.8640 F          1  LIG1  -0.1800
     23 F3        -40.4997   -42.2449    -4.3388 F          1  LIG1  -0.1800
     24 C15       -40.9259   -40.7525    -1.8305 C.ar       1  LIG1  -0.0500
     25 C16       -40.6671   -40.0365     1.5404 C.3        1  LIG1  -0.1400
     26 C17       -40.3597   -41.4333     0.9967 C.3        1  LIG1  -0.1500
     27 C18       -45.1005   -42.2256     0.5611 C.3        1  LIG1   0.1200
     28 H3        -43.9196   -43.8083     2.4417 H          1  LIG1   0.0500
     29 H4        -45.4416   -43.1620     3.1006 H          1  LIG1   0.0500
     30 H5        -45.2971   -44.8975     2.7323 H          1  LIG1   0.0600
     31 H6        -45.2096   -45.6636     0.3406 H          1  LIG1   0.0700
     32 H7        -45.2391   -44.4611    -0.9710 H          1  LIG1   0.0500
     33 H8        -41.8600   -43.0594    -0.2195 H          1  LIG1   0.0900
     34 H9        -43.1957   -43.0229    -1.3993 H          1  LIG1   0.0600
     35 H10       -43.1185   -38.6515    -0.3622 H          1  LIG1   0.1400
     36 H11       -43.2154   -37.7781    -2.6626 H          1  LIG1   0.1400
     37 H12       -41.8482   -38.8115    -4.4304 H          1  LIG1   0.1400
     38 H13       -40.2835   -41.5887    -1.5970 H          1  LIG1   0.1300
     39 H14       -40.0709   -39.2064     1.1616 H          1  LIG1   0.1000
     40 H15       -40.9724   -39.9587     2.5840 H          1  LIG1   0.1000
     41 H16       -40.4625   -42.2742     1.6825 H          1  LIG1   0.1100
     42 H17       -39.5611   -41.5219     0.2602 H          1  LIG1   0.1100
     43 H18       -45.5359   -42.0052    -0.4136 H          1  LIG1   0.0600
     44 H19       -45.4507   -41.4977     1.2929 H          1  LIG1   0.0900
@<TRIPOS>BOND
     1    1    2 1
     2    1   28 1
     3    1   29 1
     4    1   30 1
     5    2    3 1
     6    2   27 1
     7    2    4 1
     8    4    5 1
     9    4   31 1
    10    4   32 1
    11    5    6 1
    12    5    7 1
    13    5   10 1
    14    7    8 2
    15    7    9 1
    16   10   11 1
    17   10   33 1
    18   10   34 1
    19   11   12 am
    20   11   27 1
    21   12   13 2
    22   12   14 1
    23   14   26 1
    24   14   15 1
    25   14   25 1
    26   15   24 ar
    27   15   16 ar
    28   16   17 ar
    29   16   35 1
    30   17   18 ar
    31   17   36 1
    32   18   19 ar
    33   18   37 1
    34   19   20 1
    35   19   24 ar
    36   20   21 1
    37   20   22 1
    38   20   23 1
    39   24   38 1
    40   25   26 1
    41   25   39 1
    42   25   40 1
    43   26   41 1
    44   26   42 1
    45   27   43 1
    46   27   44 1
##########                 Name:     ZINC000823686850
##########          Protonation:                 none
##########               SMILES:   C[C@H](C(=O)N[C@H]1CCC[C@H]1CNC(=O)[O-])C1=CC=C(Cl)S1
##########            Long Name:   NO_LONG_NAME
##########          FlexRecCode: 1
##########               Number:                27771
##########   Ligand Source File: /bks/ex5/3D/EG/ADRM/EGADRM.xbz.db2.gz
##########                 Rank:                    1
##########               Setnum:                  104
##########             Matchnum:                    1
##########                Cloud:                    1
##########        Electrostatic:           -77.458679
##########                 Gist:             0.000000
##########        Van der Waals:           -16.477726
##########  Ligand Polar Desolv:            33.260227
########## Ligand Apolar Desolv:            -4.226633
##########      Internal Energy:             0.000000
##########      Receptor Energy:             0.000000
########## Receptor Desolvation:             0.000000
########## Receptor Hydrophobic:             0.000000
##########         Total Energy:           -64.902809
##########        Ligand Charge:            -1.000000
##########            Arbitrary:    +999.9990
##########        Ligand Energy:             0.000000

@<TRIPOS>MOLECULE
 ZINC000262240660      none
   44    45    -1     0     0



@<TRIPOS>ATOM
      1 O1        -42.0528   -46.0798    -0.7625 O.co2      1  LIG1  -0.6900
      2 C1        -43.1431   -45.5495    -0.8907 C.2        1  LIG1   0.4900
      3 O2        -43.8200   -45.7786    -1.8785 O.co2      1  LIG1  -0.7000
      4 C2        -43.6568   -44.6157     0.1746 C.3        1  LIG1   0.0800
      5 H1        -42.9216   -44.5389     0.9758 H          1  LIG1   0.0800
      6 C3        -44.9710   -45.1591     0.7388 C.3        1  LIG1  -0.0800
      7 C4        -45.2326   -44.5403     2.0879 C.ar       1  LIG1  -0.0600
      8 C5        -44.7517   -45.1488     3.2322 C.ar       1  LIG1  -0.1200
      9 C6        -44.9916   -44.5813     4.4697 C.ar       1  LIG1  -0.1200
     10 C7        -45.7119   -43.4051     4.5628 C.ar       1  LIG1  -0.1300
     11 C8        -46.1920   -42.7962     3.4183 C.ar       1  LIG1  -0.1200
     12 C9        -45.9485   -43.3615     2.1805 C.ar       1  LIG1  -0.1200
     13 N1        -43.8857   -43.2905    -0.4066 N.am       1  LIG1  -0.6900
     14 C10       -43.2205   -42.2205     0.0722 C.2        1  LIG1   0.5200
     15 O3        -42.4326   -42.3547     0.9842 O.2        1  LIG1  -0.5500
     16 C11       -43.4561   -40.8574    -0.5257 C.3        1  LIG1  -0.1400
     17 C12       -42.4759   -40.6298    -1.6782 C.3        1  LIG1   0.0800
     18 O4        -42.6992   -39.3372    -2.2452 O.3        1  LIG1  -0.3900
     19 C13       -41.5939   -38.8341    -2.9984 C.3        1  LIG1   0.1000
     20 C14       -41.5945   -39.4590    -4.3697 C.ar       1  LIG1  -0.0900
     21 C15       -40.9151   -40.6423    -4.5903 C.ar       1  LIG1  -0.1000
     22 C16       -40.9156   -41.2156    -5.8482 C.ar       1  LIG1  -0.1200
     23 C17       -41.5958   -40.6056    -6.8855 C.ar       1  LIG1  -0.1200
     24 C18       -42.2760   -39.4224    -6.6647 C.ar       1  LIG1  -0.1300
     25 C19       -42.2791   -38.8516    -5.4058 C.ar       1  LIG1  -0.1000
     26 H2        -45.7877   -44.9109     0.0608 H          1  LIG1   0.0700
     27 H3        -44.9016   -46.2418     0.8430 H          1  LIG1   0.0900
     28 H4        -44.1890   -46.0677     3.1595 H          1  LIG1   0.1200
     29 H5        -44.6165   -45.0571     5.3638 H          1  LIG1   0.1200
     30 H6        -45.9000   -42.9621     5.5296 H          1  LIG1   0.1200
     31 H7        -46.7551   -41.8775     3.4911 H          1  LIG1   0.1200
     32 H8        -46.3235   -42.8858     1.2865 H          1  LIG1   0.1200
     33 H9        -44.5160   -43.1832    -1.1361 H          1  LIG1   0.3900
     34 H10       -44.4779   -40.7966    -0.9004 H          1  LIG1   0.1000
     35 H11       -43.3030   -40.0945     0.2375 H          1  LIG1   0.0900
     36 H12       -41.4541   -40.6906    -1.3036 H          1  LIG1   0.0600
     37 H13       -42.6291   -41.3928    -2.4415 H          1  LIG1   0.0600
     38 H14       -41.6811   -37.7516    -3.0924 H          1  LIG1   0.0600
     39 H15       -40.6635   -39.0807    -2.4872 H          1  LIG1   0.0600
     40 H16       -40.3837   -41.1191    -3.7798 H          1  LIG1   0.1200
     41 H17       -40.3842   -42.1399    -6.0206 H          1  LIG1   0.1200
     42 H18       -41.5956   -41.0530    -7.8685 H          1  LIG1   0.1200
     43 H19       -42.8072   -38.9457    -7.4753 H          1  LIG1   0.1200
     44 H20       -42.8105   -37.9273    -5.2333 H          1  LIG1   0.1200
@<TRIPOS>BOND
     1    1    2 2
     2    2    3 1
     3    2    4 1
     4    4    5 1
     5    4    6 1
     6    4   13 1
     7    6    7 1
     8    6   26 1
     9    6   27 1
    10    7   12 ar
    11    7    8 ar
    12    8    9 ar
    13    8   28 1
    14    9   10 ar
    15    9   29 1
    16   10   11 ar
    17   10   30 1
    18   11   12 ar
    19   11   31 1
    20   12   32 1
    21   13   14 am
    22   13   33 1
    23   14   15 2
    24   14   16 1
    25   16   17 1
    26   16   34 1
    27   16   35 1
    28   17   18 1
    29   17   36 1
    30   17   37 1
    31   18   19 1
    32   19   20 1
    33   19   38 1
    34   19   39 1
    35   20   25 ar
    36   20   21 ar
    37   21   22 ar
    38   21   40 1
    39   22   23 ar
    40   22   41 1
    41   23   24 ar
    42   23   42 1
    43   24   25 ar
    44   24   43 1
    45   25   44 1
##########                 Name:     ZINC000578894044
##########          Protonation:                 none
##########               SMILES:   C[C@@H](C1=CN(C2=CC=CC=C2)N=N1)N1CCN(C(=O)C(=O)[O-])CC1
##########            Long Name:   NO_LONG_NAME
##########          FlexRecCode: 1
##########               Number:                21543
##########   Ligand Source File: /bks/ex5/3D/EC/ADRM/ECADRM.xbw.db2.gz
##########                 Rank:                    1
##########               Setnum:                   40
##########             Matchnum:                    1
##########                Cloud:                    1
##########        Electrostatic:           -74.736145
##########                 Gist:             0.000000
##########        Van der Waals:           -23.410145
##########  Ligand Polar Desolv:            36.950157
########## Ligand Apolar Desolv:            -3.894178
##########      Internal Energy:             0.000000
##########      Receptor Energy:             0.000000
########## Receptor Desolvation:             0.000000
########## Receptor Hydrophobic:             0.000000
##########         Total Energy:           -65.090302
##########        Ligand Charge:            -1.000000
##########            Arbitrary:    +999.9990
##########        Ligand Energy:             0.000000

@<TRIPOS>MOLECULE
 ZINC000578894044      none
   42    44    -1     0     0



@<TRIPOS>ATOM
      1 C1        -46.0373   -43.5001     4.3335 C.3        1  LIG1  -0.1400
      2 C2        -45.7898   -42.9652     2.9215 C.3        1  LIG1   0.1600
      3 H1        -46.7077   -43.0405     2.3385 H          1  LIG1   0.0600
      4 C3        -45.3606   -41.5227     2.9989 C.2        1  LIG1   0.0000
      5 C4        -46.1673   -40.4357     2.9769 C.2        1  LIG1  -0.0500
      6 N1        -45.3451   -39.3551     3.0711 N.pl3      1  LIG1  -0.2500
      7 C5        -45.7492   -38.0122     3.0868 C.ar       1  LIG1   0.1300
      8 C6        -44.8019   -37.0019     3.1819 C.ar       1  LIG1  -0.1200
      9 C7        -45.2031   -35.6802     3.1972 C.ar       1  LIG1  -0.1000
     10 C8        -46.5466   -35.3631     3.1178 C.ar       1  LIG1  -0.1100
     11 C9        -47.4925   -36.3672     3.0235 C.ar       1  LIG1  -0.1000
     12 C10       -47.0969   -37.6904     3.0016 C.ar       1  LIG1  -0.1000
     13 N2        -44.1321   -39.7800     3.1439 N.2        1  LIG1  -0.0800
     14 N3        -44.1082   -41.0654     3.1085 N.2        1  LIG1  -0.2300
     15 N4        -44.7336   -43.7565     2.2762 N.3        1  LIG1  -0.5200
     16 C11       -44.7203   -43.5322     0.8245 C.3        1  LIG1   0.0400
     17 C12       -43.4989   -44.2282     0.2147 C.3        1  LIG1   0.1100
     18 N5        -43.5121   -45.6403     0.6258 N.am       1  LIG1  -0.6000
     19 C13       -43.3900   -46.6269    -0.2843 C.2        1  LIG1   0.4500
     20 O1        -43.9158   -47.7022    -0.0875 O.2        1  LIG1  -0.5500
     21 C14       -42.6057   -46.3956    -1.5381 C.2        1  LIG1   0.5000
     22 O2        -42.0768   -45.3141    -1.7361 O.co2      1  LIG1  -0.6400
     23 O3        -42.4952   -47.2887    -2.3621 O.co2      1  LIG1  -0.6600
     24 C15       -43.6615   -45.9472     2.0564 C.3        1  LIG1   0.0800
     25 C16       -44.8766   -45.1836     2.5938 C.3        1  LIG1   0.0400
     26 H2        -45.1194   -43.4248     4.9166 H          1  LIG1   0.0700
     27 H3        -46.8210   -42.9130     4.8123 H          1  LIG1   0.0600
     28 H4        -46.3477   -44.5434     4.2775 H          1  LIG1   0.0700
     29 H5        -47.2444   -40.4277     2.8997 H          1  LIG1   0.1900
     30 H6        -43.7524   -37.2491     3.2443 H          1  LIG1   0.1300
     31 H7        -44.4665   -34.8938     3.2715 H          1  LIG1   0.1400
     32 H8        -46.8578   -34.3288     3.1300 H          1  LIG1   0.1300
     33 H9        -48.5411   -36.1165     2.9621 H          1  LIG1   0.1400
     34 H10       -47.8361   -38.4744     2.9275 H          1  LIG1   0.1400
     35 H11       -45.6297   -43.9420     0.3849 H          1  LIG1   0.0300
     36 H12       -44.6682   -42.4624     0.6222 H          1  LIG1   0.0900
     37 H13       -43.5451   -44.1628    -0.8723 H          1  LIG1   0.0800
     38 H14       -42.5876   -43.7505     0.5746 H          1  LIG1   0.0700
     39 H15       -43.8152   -47.0184     2.1869 H          1  LIG1   0.1600
     40 H16       -42.7659   -45.6348     2.5933 H          1  LIG1   0.0600
     41 H17       -44.9377   -45.3115     3.6746 H          1  LIG1   0.0800
     42 H18       -45.7837   -45.5704     2.1294 H          1  LIG1   0.0300
@<TRIPOS>BOND
     1    1    2 1
     2    1   26 1
     3    1   27 1
     4    1   28 1
     5    2    3 1
     6    2    4 1
     7    2   15 1
     8    4   14 1
     9    4    5 2
    10    5    6 1
    11    5   29 1
    12    6    7 1
    13    6   13 1
    14    7   12 ar
    15    7    8 ar
    16    8    9 ar
    17    8   30 1
    18    9   10 ar
    19    9   31 1
    20   10   11 ar
    21   10   32 1
    22   11   12 ar
    23   11   33 1
    24   12   34 1
    25   13   14 2
    26   15   25 1
    27   15   16 1
    28   16   17 1
    29   16   35 1
    30   16   36 1
    31   17   18 1
    32   17   37 1
    33   17   38 1
    34   18   19 am
    35   18   24 1
    36   19   20 2
    37   19   21 1
    38   21   22 2
    39   21   23 1
    40   24   25 1
    41   24   39 1
    42   24   40 1
    43   25   41 1
    44   25   42 1
##########                 Name:     ZINC001605857402
##########          Protonation:                 none
##########               SMILES:   O=C([O-])C1=CC(NC(=O)C2=C(C3=CC=CC=C3)SCCO2)=CC=C1
##########            Long Name:   NO_LONG_NAME
##########          FlexRecCode: 1
##########               Number:                18122
##########   Ligand Source File: /bks/ex5/3D/EG/ADRM/EGADRM.xbj.db2.gz
##########                 Rank:                    1
##########               Setnum:                   16
##########             Matchnum:                    1
##########                Cloud:                    1
##########        Electrostatic:           -69.315262
##########                 Gist:             0.000000
##########        Van der Waals:           -25.069134
##########  Ligand Polar Desolv:            37.054394
########## Ligand Apolar Desolv:            -6.788133
##########      Internal Energy:             0.000000
##########      Receptor Energy:             0.000000
########## Receptor Desolvation:             0.000000
########## Receptor Hydrophobic:             0.000000
##########         Total Energy:           -64.118134
##########        Ligand Charge:            -1.000000
##########            Arbitrary:    +999.9990
##########        Ligand Energy:             0.000000

@<TRIPOS>MOLECULE
 ZINC000089563440      none
   46    47     0     0     0



@<TRIPOS>ATOM
      1 C1        -40.6773   -50.2026    -1.3799 C.3        1  LIG1   0.1100
      2 N1        -40.5223   -49.1586    -0.3640 N.am       1  LIG1  -0.7500
      3 C2        -41.6111   -48.5659     0.1650 C.2        1  LIG1   0.7100
      4 O1        -42.7220   -48.8978    -0.2013 O.2        1  LIG1  -0.5900
      5 N2        -41.4686   -47.6055     1.0996 N.am       1  LIG1  -0.7400
      6 C3        -42.6522   -46.9613     1.6744 C.3        1  LIG1   0.1200
      7 C4        -43.0166   -45.7532     0.8506 C.2        1  LIG1   0.5100
      8 O2        -42.3530   -45.4592    -0.1209 O.2        1  LIG1  -0.5300
      9 N3        -44.0798   -44.9994     1.1936 N.am       1  LIG1  -0.6100
     10 C5        -44.8815   -45.3545     2.3673 C.3        1  LIG1   0.0700
     11 C6        -44.4340   -43.8248     0.3929 C.3        1  LIG1   0.1700
     12 C7        -43.7191   -42.6137     0.9343 C.ar       1  LIG1  -0.0700
     13 C8        -42.4716   -42.2735     0.4499 C.ar       1  LIG1  -0.1100
     14 C9        -41.8145   -41.1624     0.9466 C.ar       1  LIG1  -0.1200
     15 C10       -42.4042   -40.3884     1.9289 C.ar       1  LIG1  -0.1100
     16 C11       -43.6521   -40.7228     2.4175 C.ar       1  LIG1  -0.1500
     17 C12       -44.3169   -41.8348     1.9171 C.ar       1  LIG1   0.0900
     18 N4        -45.5790   -42.1757     2.4090 N.pl3      1  LIG1  -0.4800
     19 C13       -45.5410   -42.3743     3.8805 C.3        1  LIG1   0.0400
     20 C14       -47.0241   -42.2127     4.2985 C.3        1  LIG1  -0.1200
     21 C15       -47.5247   -41.0846     3.3675 C.3        1  LIG1  -0.1300
     22 C16       -46.5514   -41.0863     2.1742 C.3        1  LIG1   0.0400
     23 H1        -39.6943   -50.5604    -1.6861 H          1  LIG1   0.0600
     24 H2        -41.2526   -51.0304    -0.9653 H          1  LIG1   0.0600
     25 H3        -41.2004   -49.7936    -2.2443 H          1  LIG1   0.0800
     26 H4        -39.6360   -48.8938    -0.0718 H          1  LIG1   0.4000
     27 H5        -40.5824   -47.3407     1.3916 H          1  LIG1   0.4100
     28 H6        -43.4847   -47.6651     1.6751 H          1  LIG1   0.1000
     29 H7        -42.4369   -46.6522     2.6972 H          1  LIG1   0.1000
     30 H8        -45.6918   -44.6351     2.4851 H          1  LIG1   0.0700
     31 H9        -45.2985   -46.3528     2.2340 H          1  LIG1   0.0800
     32 H10       -44.2507   -45.3400     3.2561 H          1  LIG1   0.0800
     33 H11       -44.1378   -43.9887    -0.6433 H          1  LIG1   0.0900
     34 H12       -45.5108   -43.6631     0.4416 H          1  LIG1   0.1000
     35 H13       -42.0082   -42.8760    -0.3174 H          1  LIG1   0.1200
     36 H14       -40.8385   -40.8991     0.5665 H          1  LIG1   0.1200
     37 H15       -41.8883   -39.5216     2.3148 H          1  LIG1   0.1200
     38 H16       -44.1119   -40.1179     3.1850 H          1  LIG1   0.1200
     39 H17       -45.1792   -43.3731     4.1247 H          1  LIG1   0.0900
     40 H18       -44.9223   -41.6130     4.3556 H          1  LIG1   0.0500
     41 H19       -47.5779   -43.1345     4.1197 H          1  LIG1   0.0800
     42 H20       -47.1000   -41.9124     5.3435 H          1  LIG1   0.0700
     43 H21       -48.5390   -41.2957     3.0286 H          1  LIG1   0.0800
     44 H22       -47.4893   -40.1249     3.8831 H          1  LIG1   0.0700
     45 H23       -46.0313   -40.1301     2.1178 H          1  LIG1   0.0500
     46 H24       -47.0982   -41.2698     1.2493 H          1  LIG1   0.0800
@<TRIPOS>BOND
     1    1    2 1
     2    1   23 1
     3    1   24 1
     4    1   25 1
     5    2    3 am
     6    2   26 1
     7    3    4 2
     8    3    5 am
     9    5    6 1
    10    5   27 1
    11    6    7 1
    12    6   28 1
    13    6   29 1
    14    7    8 2
    15    7    9 am
    16    9   10 1
    17    9   11 1
    18   10   30 1
    19   10   31 1
    20   10   32 1
    21   11   12 1
    22   11   33 1
    23   11   34 1
    24   12   17 ar
    25   12   13 ar
    26   13   14 ar
    27   13   35 1
    28   14   15 ar
    29   14   36 1
    30   15   16 ar
    31   15   37 1
    32   16   17 ar
    33   16   38 1
    34   17   18 1
    35   18   22 1
    36   18   19 1
    37   19   20 1
    38   19   39 1
    39   19   40 1
    40   20   21 1
    41   20   41 1
    42   20   42 1
    43   21   22 1
    44   21   43 1
    45   21   44 1
    46   22   45 1
    47   22   46 1
##########                 Name:     ZINC000176126532
##########          Protonation:                 none
##########               SMILES:   CC1=CC=C(CN(CC2=CC=CO2)C(=O)CSC2=N[N-]C(=S)S2)S1
##########            Long Name:   NO_LONG_NAME
##########          FlexRecCode: 1
##########               Number:                 3240
##########   Ligand Source File: /bks/ex7/3D/GI/ADRM/GIADRM.xaa.db2.gz
##########                 Rank:                    1
##########               Setnum:                   47
##########             Matchnum:                    1
##########                Cloud:                    1
##########        Electrostatic:           -58.280945
##########                 Gist:             0.000000
##########        Van der Waals:           -28.442144
##########  Ligand Polar Desolv:            27.597361
########## Ligand Apolar Desolv:            -6.335682
##########      Internal Energy:             0.000000
##########      Receptor Energy:             0.000000
########## Receptor Desolvation:             0.000000
########## Receptor Hydrophobic:             0.000000
##########         Total Energy:           -65.461411
##########        Ligand Charge:            -1.000000
##########            Arbitrary:    +999.9990
##########        Ligand Energy:             0.000000

@<TRIPOS>MOLECULE
 ZINC000176126532      none
   38    40    -1     0     0



@<TRIPOS>ATOM
      1 C1        -39.0301   -42.1829    -4.7789 C.3        1  LIG1  -0.0800
      2 C2        -39.8063   -41.6756    -3.5908 C.2        1  LIG1  -0.1700
      3 C3        -39.7783   -42.2102    -2.3691 C.2        1  LIG1  -0.1400
      4 C4        -40.5756   -41.5717    -1.4347 C.2        1  LIG1  -0.1000
      5 C5        -41.2509   -40.5187    -1.8978 C.2        1  LIG1  -0.2100
      6 C6        -42.1825   -39.6579    -1.0841 C.3        1  LIG1   0.1900
      7 N1        -42.2309   -40.1566     0.2926 N.am       1  LIG1  -0.6000
      8 C7        -41.2855   -39.6485     1.2895 C.3        1  LIG1   0.1900
      9 C8        -41.8763   -38.4422     1.9731 C.2        1  LIG1  -0.0500
     10 C9        -42.6280   -38.4597     3.0884 C.2        1  LIG1  -0.1900
     11 C10       -42.9657   -37.1172     3.3758 C.2        1  LIG1  -0.2100
     12 C11       -42.4000   -36.3597     2.4190 C.2        1  LIG1  -0.0400
     13 O1        -41.7366   -37.1672     1.5753 O.3        1  LIG1  -0.1700
     14 C12       -43.1454   -41.0831     0.6419 C.2        1  LIG1   0.5400
     15 O2        -43.1855   -41.4960     1.7816 O.2        1  LIG1  -0.5100
     16 C13       -44.1182   -41.6059    -0.3836 C.3        1  LIG1  -0.1600
     17 S1        -45.2085   -42.8279     0.3870 S.3        1  LIG1   0.0700
     18 C14       -44.2755   -44.2947     0.0999 C.2        1  LIG1  -0.0100
     19 N2        -42.9853   -44.3977     0.0103 N.2        1  LIG1  -0.2900
     20 N3        -42.4403   -45.6408    -0.2191 N.2        1  LIG1  -0.3600
     21 C15       -43.3021   -46.6688    -0.3342 C.2        1  LIG1   0.2600
     22 S2        -42.9334   -48.3164    -0.6180 S.2        1  LIG1  -0.6500
     23 S3        -44.9042   -45.9380    -0.1188 S.3        1  LIG1  -0.0600
     24 S4        -40.8817   -40.2840    -3.6014 S.3        1  LIG1   0.0900
     25 H1        -38.4474   -43.0563    -4.4861 H          1  LIG1   0.0700
     26 H2        -39.7223   -42.4580    -5.5746 H          1  LIG1   0.0800
     27 H3        -38.3591   -41.4013    -5.1350 H          1  LIG1   0.0800
     28 H4        -39.1794   -43.0757    -2.1271 H          1  LIG1   0.1400
     29 H5        -40.6458   -41.9013    -0.4086 H          1  LIG1   0.1400
     30 H6        -41.8211   -38.6295    -1.0854 H          1  LIG1   0.0900
     31 H7        -43.1816   -39.6924    -1.5185 H          1  LIG1   0.1100
     32 H8        -41.0857   -40.4238     2.0292 H          1  LIG1   0.1200
     33 H9        -40.3545   -39.3675     0.7973 H          1  LIG1   0.1000
     34 H10       -42.9184   -39.3320     3.6552 H          1  LIG1   0.1500
     35 H11       -43.5634   -36.7671     4.2044 H          1  LIG1   0.1500
     36 H12       -42.4649   -35.2842     2.3441 H          1  LIG1   0.2000
     37 H13       -44.7147   -40.7807    -0.7724 H          1  LIG1   0.1200
     38 H14       -43.5686   -42.0734    -1.2006 H          1  LIG1   0.1200
@<TRIPOS>BOND
     1    1    2 1
     2    1   25 1
     3    1   26 1
     4    1   27 1
     5    2   24 1
     6    2    3 2
     7    3    4 1
     8    3   28 1
     9    4    5 2
    10    4   29 1
    11    5    6 1
    12    5   24 1
    13    6    7 1
    14    6   30 1
    15    6   31 1
    16    7    8 1
    17    7   14 am
    18    8    9 1
    19    8   32 1
    20    8   33 1
    21    9   13 1
    22    9   10 2
    23   10   11 1
    24   10   34 1
    25   11   12 2
    26   11   35 1
    27   12   13 1
    28   12   36 1
    29   14   15 2
    30   14   16 1
    31   16   17 1
    32   16   37 1
    33   16   38 1
    34   17   18 1
    35   18   23 1
    36   18   19 2
    37   19   20 1
    38   20   21 1
    39   21   22 2
    40   21   23 1
##########                 Name:     ZINC000473835891
##########          Protonation:                 none
##########               SMILES:   CC1=C(C2=NC(=NC(=O)N[C@@H]3CCO[C@@H](C4=CC=C(F)C=C4)C3)S[N-]2)SC=C1
##########            Long Name:   NO_LONG_NAME
##########          FlexRecCode: 1
##########               Number:                36042
##########   Ligand Source File: /bks/ex1/3D/HI/ADRM/HIADRM.xae.db2.gz
##########                 Rank:                    1
##########               Setnum:                   36
##########             Matchnum:                    1
##########                Cloud:                    1
##########        Electrostatic:           -62.557606
##########                 Gist:             0.000000
##########        Van der Waals:           -25.965498
##########  Ligand Polar Desolv:            27.542793
########## Ligand Apolar Desolv:            -4.213326
##########      Internal Energy:             0.000000
##########      Receptor Energy:             0.000000
########## Receptor Desolvation:             0.000000
########## Receptor Hydrophobic:             0.000000
##########         Total Energy:           -65.193634
##########        Ligand Charge:            -1.000000
##########            Arbitrary:    +999.9990
##########        Ligand Energy:             0.000000

@<TRIPOS>MOLECULE
 ZINC000194849226      none
   43    45    -1     0     0



@<TRIPOS>ATOM
      1 C1        -36.9693   -50.0854     0.6656 C.3        1  LIG1  -0.1200
      2 C2        -38.3165   -49.8322     0.0394 C.ar       1  LIG1  -0.0500
      3 C3        -38.4893   -50.0033    -1.3211 C.ar       1  LIG1  -0.1400
      4 C4        -39.7253   -49.7710    -1.8955 C.ar       1  LIG1  -0.0200
      5 C5        -40.7881   -49.3680    -1.1092 C.ar       1  LIG1  -0.6300
      6 S1        -42.3631   -49.0714    -1.8413 S.o2       1  LIG1   2.6600
      7 O1        -42.3935   -49.8235    -3.0465 O.2        1  LIG1  -1.0100
      8 O2        -43.3228   -49.2251    -0.8048 O.2        1  LIG1  -1.0100
      9 N1        -42.4051   -47.4763    -2.2845 N.2        1  LIG1  -1.0600
     10 C6        -42.8678   -46.5238    -1.3957 C.2        1  LIG1   0.4900
     11 N2        -42.4884   -45.2709    -1.3320 N.2        1  LIG1  -0.4400
     12 N3        -43.1285   -44.6799    -0.3854 N.2        1  LIG1  -0.2600
     13 C7        -43.9348   -45.5243     0.1879 C.2        1  LIG1   0.0600
     14 C8        -44.8615   -45.2293     1.3391 C.3        1  LIG1   0.0100
     15 C9        -44.1147   -44.4186     2.4002 C.3        1  LIG1  -0.0800
     16 C10       -45.0414   -44.1236     3.5514 C.ar       1  LIG1  -0.0700
     17 C11       -45.8122   -42.9761     3.5415 C.ar       1  LIG1  -0.1200
     18 C12       -46.6623   -42.7054     4.5975 C.ar       1  LIG1  -0.1200
     19 C13       -46.7419   -43.5825     5.6630 C.ar       1  LIG1  -0.1300
     20 C14       -45.9718   -44.7304     5.6724 C.ar       1  LIG1  -0.1200
     21 C15       -45.1249   -45.0031     4.6144 C.ar       1  LIG1  -0.1100
     22 O3        -43.7956   -46.7092    -0.4387 O.3        1  LIG1  -0.2500
     23 C16       -40.6156   -49.1982     0.2520 C.ar       1  LIG1  -0.0200
     24 C17       -39.3810   -49.4342     0.8268 C.ar       1  LIG1  -0.1200
     25 C18       -39.1928   -49.2491     2.3106 C.3        1  LIG1  -0.1100
     26 H1        -36.2613   -50.3884    -0.1058 H          1  LIG1   0.0700
     27 H2        -36.6147   -49.1736     1.1460 H          1  LIG1   0.0700
     28 H3        -37.0573   -50.8774     1.4092 H          1  LIG1   0.0700
     29 H4        -37.6589   -50.3181    -1.9356 H          1  LIG1   0.1300
     30 H5        -39.8602   -49.9040    -2.9588 H          1  LIG1   0.1400
     31 H6        -45.7167   -44.6569     0.9796 H          1  LIG1   0.0800
     32 H7        -45.2088   -46.1660     1.7752 H          1  LIG1   0.1000
     33 H8        -43.2596   -44.9911     2.7596 H          1  LIG1   0.0800
     34 H9        -43.7673   -43.4820     1.9641 H          1  LIG1   0.0800
     35 H10       -45.7499   -42.2909     2.7090 H          1  LIG1   0.1200
     36 H11       -47.2639   -41.8086     4.5902 H          1  LIG1   0.1200
     37 H12       -47.4056   -43.3707     6.4883 H          1  LIG1   0.1200
     38 H13       -46.0337   -45.4156     6.5050 H          1  LIG1   0.1200
     39 H14       -44.5232   -45.9001     4.6218 H          1  LIG1   0.1200
     40 H15       -41.4461   -48.8838     0.8666 H          1  LIG1   0.1400
     41 H16       -40.1351   -48.9356     2.7600 H          1  LIG1   0.0700
     42 H17       -38.8731   -50.1908     2.7567 H          1  LIG1   0.0700
     43 H18       -38.4343   -48.4867     2.4884 H          1  LIG1   0.0700
@<TRIPOS>BOND
     1    1    2 1
     2    1   26 1
     3    1   27 1
     4    1   28 1
     5    2   24 ar
     6    2    3 ar
     7    3    4 ar
     8    3   29 1
     9    4    5 ar
    10    4   30 1
    11    5    6 1
    12    5   23 ar
    13    6    7 2
    14    6    8 2
    15    6    9 1
    16    9   10 1
    17   10   22 1
    18   10   11 2
    19   11   12 1
    20   12   13 2
    21   13   14 1
    22   13   22 1
    23   14   15 1
    24   14   31 1
    25   14   32 1
    26   15   16 1
    27   15   33 1
    28   15   34 1
    29   16   21 ar
    30   16   17 ar
    31   17   18 ar
    32   17   35 1
    33   18   19 ar
    34   18   36 1
    35   19   20 ar
    36   19   37 1
    37   20   21 ar
    38   20   38 1
    39   21   39 1
    40   23   24 ar
    41   23   40 1
    42   24   25 1
    43   25   41 1
    44   25   42 1
    45   25   43 1
##########                 Name:     ZINC000663026600
##########          Protonation:                 none
##########               SMILES:   O=C([O-])CCC1=CC=CC(NC(=O)C2=C(C(F)(F)F)N=C3CCCCN32)=C1
##########            Long Name:   NO_LONG_NAME
##########          FlexRecCode: 1
##########               Number:                36080
##########   Ligand Source File: /bks/ex7/3D/GH/ADRM/GHADRM.xan.db2.gz
##########                 Rank:                    1
##########               Setnum:                   90
##########             Matchnum:                    1
##########                Cloud:                    1
##########        Electrostatic:           -66.617081
##########                 Gist:             0.000000
##########        Van der Waals:           -25.364819
##########  Ligand Polar Desolv:            33.881298
########## Ligand Apolar Desolv:            -7.310280
##########      Internal Energy:             0.000000
##########      Receptor Energy:             0.000000
########## Receptor Desolvation:             0.000000
########## Receptor Hydrophobic:             0.000000
##########         Total Energy:           -65.410889
##########        Ligand Charge:            -1.000000
##########            Arbitrary:    +999.9990
##########        Ligand Energy:             0.000000

@<TRIPOS>MOLECULE
 ZINC000663026600      none
   44    46    -1     0     0



@<TRIPOS>ATOM
      1 O1        -41.5260   -47.0319    -1.3442 O.co2      1  LIG1  -0.7000
      2 C1        -42.5299   -47.1933    -0.6713 C.2        1  LIG1   0.4900
      3 O2        -42.7227   -48.2582    -0.1098 O.co2      1  LIG1  -0.7100
      4 C2        -43.5290   -46.0743    -0.5283 C.3        1  LIG1  -0.1700
      5 C3        -43.6622   -45.6950     0.9479 C.3        1  LIG1  -0.0600
      6 C4        -44.6615   -44.5760     1.0909 C.ar       1  LIG1  -0.0500
      7 C5        -45.9997   -44.8655     1.2831 C.ar       1  LIG1  -0.1300
      8 C6        -46.9200   -43.8414     1.4144 C.ar       1  LIG1  -0.1000
      9 C7        -46.5046   -42.5259     1.3545 C.ar       1  LIG1  -0.1300
     10 C8        -45.1607   -42.2316     1.1620 C.ar       1  LIG1   0.1300
     11 N1        -44.7366   -40.9005     1.1009 N.am       1  LIG1  -0.6700
     12 C9        -43.4971   -40.5685     1.5130 C.2        1  LIG1   0.5800
     13 O3        -42.7469   -41.4271     1.9382 O.2        1  LIG1  -0.4800
     14 C10       -43.0521   -39.1717     1.4487 C.2        1  LIG1  -0.0200
     15 C11       -42.4267   -38.5557     0.3988 C.2        1  LIG1  -0.0100
     16 C12       -42.0650   -39.1944    -0.9174 C.3        1  LIG1   0.5500
     17 F1        -42.4681   -40.5340    -0.9120 F          1  LIG1  -0.1700
     18 F2        -42.7107   -38.5171    -1.9574 F          1  LIG1  -0.1700
     19 F3        -40.6803   -39.1248    -1.1045 F          1  LIG1  -0.1400
     20 N2        -42.1943   -37.2887     0.7479 N.2        1  LIG1  -0.4500
     21 C13       -42.6392   -37.0769     1.9569 C.2        1  LIG1   0.2500
     22 C14       -42.5812   -35.7833     2.7358 C.3        1  LIG1  -0.0400
     23 C15       -43.5600   -35.8867     3.9121 C.3        1  LIG1  -0.1300
     24 C16       -43.3277   -37.2105     4.6466 C.3        1  LIG1  -0.1400
     25 C17       -43.7815   -38.3736     3.7578 C.3        1  LIG1   0.0800
     26 N3        -43.1848   -38.2163     2.4297 N.pl3      1  LIG1  -0.4300
     27 C18       -44.2385   -43.2623     1.0357 C.ar       1  LIG1  -0.1400
     28 H1        -43.1888   -45.2085    -1.0966 H          1  LIG1   0.0600
     29 H2        -44.4971   -46.4007    -0.9084 H          1  LIG1   0.0600
     30 H3        -44.0024   -46.5606     1.5162 H          1  LIG1   0.0700
     31 H4        -42.6942   -45.3684     1.3280 H          1  LIG1   0.0700
     32 H5        -46.3272   -45.8935     1.3304 H          1  LIG1   0.1200
     33 H6        -47.9647   -44.0709     1.5637 H          1  LIG1   0.1200
     34 H7        -47.2238   -41.7266     1.4568 H          1  LIG1   0.1300
     35 H8        -45.3346   -40.2160     0.7619 H          1  LIG1   0.4000
     36 H9        -41.5702   -35.6254     3.1114 H          1  LIG1   0.1000
     37 H10       -42.8680   -34.9528     2.0907 H          1  LIG1   0.1100
     38 H11       -43.3941   -35.0558     4.5979 H          1  LIG1   0.0900
     39 H12       -44.5833   -35.8524     3.5383 H          1  LIG1   0.0800
     40 H13       -42.2671   -37.3189     4.8735 H          1  LIG1   0.0800
     41 H14       -43.9003   -37.2168     5.5741 H          1  LIG1   0.1000
     42 H15       -43.4580   -39.3171     4.1975 H          1  LIG1   0.1000
     43 H16       -44.8678   -38.3633     3.6691 H          1  LIG1   0.1000
     44 H17       -43.1929   -43.0368     0.8859 H          1  LIG1   0.1200
@<TRIPOS>BOND
     1    1    2 2
     2    2    3 1
     3    2    4 1
     4    4    5 1
     5    4   28 1
     6    4   29 1
     7    5    6 1
     8    5   30 1
     9    5   31 1
    10    6   27 ar
    11    6    7 ar
    12    7    8 ar
    13    7   32 1
    14    8    9 ar
    15    8   33 1
    16    9   10 ar
    17    9   34 1
    18   10   11 1
    19   10   27 ar
    20   11   12 am
    21   11   35 1
    22   12   13 2
    23   12   14 1
    24   14   26 1
    25   14   15 2
    26   15   16 1
    27   15   20 1
    28   16   17 1
    29   16   18 1
    30   16   19 1
    31   20   21 2
    32   21   26 1
    33   21   22 1
    34   22   23 1
    35   22   36 1
    36   22   37 1
    37   23   24 1
    38   23   38 1
    39   23   39 1
    40   24   25 1
    41   24   40 1
    42   24   41 1
    43   25   26 1
    44   25   42 1
    45   25   43 1
    46   27   44 1
##########                 Name:     ZINC000768864913
##########          Protonation:                 none
##########               SMILES:   O=[N+]([O-])C1=CC(S(=O)(=O)[N-]C2=CNN=C2C2=CC=CC=C2)=CS1
##########            Long Name:   NO_LONG_NAME
##########          FlexRecCode: 1
##########               Number:                25610
##########   Ligand Source File: /bks/ex4/3D/FF/BDRM/FFBDRM.xac.db2.gz
##########                 Rank:                    1
##########               Setnum:                   34
##########             Matchnum:                    1
##########                Cloud:                    1
##########        Electrostatic:           -64.093468
##########                 Gist:             0.000000
##########        Van der Waals:           -24.191740
##########  Ligand Polar Desolv:            25.757944
########## Ligand Apolar Desolv:            -2.049685
##########      Internal Energy:             0.000000
##########      Receptor Energy:             0.000000
########## Receptor Desolvation:             0.000000
########## Receptor Hydrophobic:             0.000000
##########         Total Energy:           -64.576950
##########        Ligand Charge:            -1.000000
##########            Arbitrary:    +999.9990
##########        Ligand Energy:             0.000000

@<TRIPOS>MOLECULE
 ZINC000070028993      none
   31    32    -1     0     0



@<TRIPOS>ATOM
      1 O1        -42.2255   -45.3100    -0.7608 O.2        1  LIG1  -0.6200
      2 C1        -43.0048   -46.2312    -0.8836 C.2        1  LIG1   0.5300
      3 C2        -43.9728   -46.5522     0.2259 C.3        1  LIG1  -0.0800
      4 C3        -44.3153   -45.2899     0.9746 C.ar       1  LIG1  -0.0300
      5 C4        -44.3079   -44.0736     0.3181 C.ar       1  LIG1  -0.1000
      6 C5        -44.6224   -42.9151     1.0041 C.ar       1  LIG1  -0.1100
      7 C6        -44.9440   -42.9727     2.3469 C.ar       1  LIG1  -0.1200
      8 C7        -44.9515   -44.1900     3.0047 C.ar       1  LIG1  -0.0300
      9 Cl1       -45.3560   -44.2631     4.6913 Cl         1  LIG1  -0.0900
     10 C8        -44.6423   -45.3494     2.3164 C.ar       1  LIG1  -0.1000
     11 N1        -43.0089   -46.9643    -2.0145 N.2        1  LIG1  -1.1200
     12 S1        -42.7071   -48.5912    -1.9476 S.o2       1  LIG1   2.6400
     13 O2        -43.6172   -49.1294    -0.9982 O.2        1  LIG1  -1.0200
     14 O3        -42.6314   -49.0410    -3.2933 O.2        1  LIG1  -1.0200
     15 C9        -41.0961   -48.7951    -1.2635 C.ar       1  LIG1  -0.6200
     16 C10       -39.9916   -48.8269    -2.0943 C.ar       1  LIG1  -0.0100
     17 C11       -38.7277   -48.9868    -1.5583 C.ar       1  LIG1  -0.1400
     18 C12       -38.5681   -49.1151    -0.1899 C.ar       1  LIG1   0.0000
     19 Cl2       -36.9808   -49.3153     0.4840 Cl         1  LIG1  -0.0800
     20 C13       -39.6738   -49.0832     0.6409 C.ar       1  LIG1  -0.1400
     21 C14       -40.9367   -48.9176     0.1042 C.ar       1  LIG1  -0.0100
     22 H1        -44.8811   -46.9814    -0.1972 H          1  LIG1   0.0900
     23 H2        -43.5171   -47.2681     0.9099 H          1  LIG1   0.0900
     24 H3        -44.0560   -44.0281    -0.7312 H          1  LIG1   0.1300
     25 H4        -44.6165   -41.9650     0.4906 H          1  LIG1   0.1300
     26 H5        -45.1890   -42.0676     2.8828 H          1  LIG1   0.1300
     27 H6        -44.6480   -46.2999     2.8292 H          1  LIG1   0.1300
     28 H7        -40.1164   -48.7271    -3.1624 H          1  LIG1   0.1500
     29 H8        -37.8650   -49.0120    -2.2074 H          1  LIG1   0.1400
     30 H9        -39.5499   -49.1836     1.7091 H          1  LIG1   0.1400
     31 H10       -41.8000   -48.8922     0.7527 H          1  LIG1   0.1500
@<TRIPOS>BOND
     1    1    2 2
     2    2    3 1
     3    2   11 1
     4    3    4 1
     5    3   22 1
     6    3   23 1
     7    4   10 ar
     8    4    5 ar
     9    5    6 ar
    10    5   24 1
    11    6    7 ar
    12    6   25 1
    13    7    8 ar
    14    7   26 1
    15    8    9 1
    16    8   10 ar
    17   10   27 1
    18   11   12 1
    19   12   13 2
    20   12   14 2
    21   12   15 1
    22   15   21 ar
    23   15   16 ar
    24   16   17 ar
    25   16   28 1
    26   17   18 ar
    27   17   29 1
    28   18   19 1
    29   18   20 ar
    30   20   21 ar
    31   20   30 1
    32   21   31 1
##########                 Name:     ZINC000909457087
##########          Protonation:                 none
##########               SMILES:   C[C@H](CN(C(=O)C1=CC2=C(S1)N(C)N=C2C(F)F)C1CC1)C(=O)[O-]
##########            Long Name:   NO_LONG_NAME
##########          FlexRecCode: 1
##########               Number:                23050
##########   Ligand Source File: /bks/ex4/3D/FF/ADRM/FFADRM.xdy.db2.gz
##########                 Rank:                    1
##########               Setnum:                  167
##########             Matchnum:                    1
##########                Cloud:                    1
##########        Electrostatic:           -65.181396
##########                 Gist:             0.000000
##########        Van der Waals:           -22.082832
##########  Ligand Polar Desolv:            28.581570
########## Ligand Apolar Desolv:            -5.821613
##########      Internal Energy:             0.000000
##########      Receptor Energy:             0.000000
########## Receptor Desolvation:             0.000000
########## Receptor Hydrophobic:             0.000000
##########         Total Energy:           -64.504272
##########        Ligand Charge:            -1.000000
##########            Arbitrary:    +999.9990
##########        Ligand Energy:             0.000000

@<TRIPOS>MOLECULE
 ZINC000909457087      none
   40    42    -1     0     0



@<TRIPOS>ATOM
      1 C1        -43.8600   -45.7758     1.3170 C.3        1  LIG1  -0.1200
      2 C2        -43.2102   -44.9267     0.2226 C.3        1  LIG1  -0.1900
      3 H1        -42.2054   -44.6408     0.5332 H          1  LIG1   0.0700
      4 C3        -44.0489   -43.6687    -0.0121 C.3        1  LIG1   0.1100
      5 N1        -43.7454   -42.6791     1.0245 N.am       1  LIG1  -0.5700
      6 C4        -42.7573   -41.7830     0.8322 C.2        1  LIG1   0.6000
      7 O1        -42.1342   -41.3505     1.7839 O.2        1  LIG1  -0.5300
      8 C5        -42.4329   -41.3293    -0.5235 C.2        1  LIG1  -0.3100
      9 C6        -41.5420   -41.9180    -1.3348 C.2        1  LIG1   0.0100
     10 C7        -41.3873   -41.3173    -2.5913 C.2        1  LIG1  -0.2100
     11 C8        -42.1979   -40.2073    -2.7643 C.2        1  LIG1  -0.0200
     12 S1        -43.1615   -39.9427    -1.3168 S.3        1  LIG1   0.3700
     13 N2        -41.9568   -39.7158    -4.0171 N.pl3      1  LIG1  -0.3400
     14 C9        -42.5975   -38.5440    -4.6193 C.3        1  LIG1   0.1000
     15 N3        -40.9919   -40.5254    -4.6230 N.2        1  LIG1  -0.2300
     16 C10       -40.6445   -41.4709    -3.8030 C.2        1  LIG1   0.0400
     17 C11       -39.6290   -42.5489    -4.0822 C.3        1  LIG1   0.3600
     18 F1        -38.5920   -42.4664    -3.1468 F          1  LIG1  -0.1900
     19 F2        -40.2424   -43.8028    -3.9891 F          1  LIG1  -0.1900
     20 C12       -44.5163   -42.6633     2.2702 C.3        1  LIG1   0.0800
     21 C13       -45.1220   -41.3288     2.7093 C.3        1  LIG1  -0.1900
     22 C14       -46.0257   -42.4366     2.1643 C.3        1  LIG1  -0.1900
     23 C15       -43.1336   -45.7248    -1.0534 C.2        1  LIG1   0.5000
     24 O2        -42.0512   -45.9516    -1.5666 O.co2      1  LIG1  -0.6800
     25 O3        -44.1541   -46.1437    -1.5725 O.co2      1  LIG1  -0.6800
     26 H2        -44.8649   -46.0618     1.0063 H          1  LIG1   0.0500
     27 H3        -43.2626   -46.6721     1.4843 H          1  LIG1   0.0400
     28 H4        -43.9155   -45.1987     2.2399 H          1  LIG1   0.0500
     29 H5        -43.8133   -43.2526    -0.9918 H          1  LIG1   0.1000
     30 H6        -45.1075   -43.9249     0.0288 H          1  LIG1   0.0900
     31 H7        -40.9826   -42.7937    -1.0402 H          1  LIG1   0.1500
     32 H8        -42.2065   -38.3931    -5.6256 H          1  LIG1   0.0800
     33 H9        -43.6746   -38.7039    -4.6683 H          1  LIG1   0.0900
     34 H10       -42.3882   -37.6633    -4.0123 H          1  LIG1   0.1000
     35 H11       -39.2245   -42.4160    -5.0857 H          1  LIG1   0.1300
     36 H12       -44.1621   -43.3368     3.0507 H          1  LIG1   0.1300
     37 H13       -45.1664   -41.1238     3.7790 H          1  LIG1   0.0900
     38 H14       -44.9471   -40.4625     2.0714 H          1  LIG1   0.1400
     39 H15       -46.4452   -42.2991     1.1675 H          1  LIG1   0.0900
     40 H16       -46.6645   -42.9604     2.8752 H          1  LIG1   0.0900
@<TRIPOS>BOND
     1    1    2 1
     2    1   26 1
     3    1   27 1
     4    1   28 1
     5    2    3 1
     6    2    4 1
     7    2   23 1
     8    4    5 1
     9    4   29 1
    10    4   30 1
    11    5    6 am
    12    5   20 1
    13    6    7 2
    14    6    8 1
    15    8   12 1
    16    8    9 2
    17    9   10 1
    18    9   31 1
    19   10   16 1
    20   10   11 2
    21   11   12 1
    22   11   13 1
    23   13   14 1
    24   13   15 1
    25   14   32 1
    26   14   33 1
    27   14   34 1
    28   15   16 2
    29   16   17 1
    30   17   18 1
    31   17   19 1
    32   17   35 1
    33   20   22 1
    34   20   21 1
    35   20   36 1
    36   21   22 1
    37   21   37 1
    38   21   38 1
    39   22   39 1
    40   22   40 1
    41   23   24 2
    42   23   25 1
##########                 Name:     ZINC000170672566
##########          Protonation:                 none
##########               SMILES:   CC1=CC=C(OCC(=O)NC[C@H](CC2=CC=CC=C2C)C(=O)[O-])C(C)=C1
##########            Long Name:   NO_LONG_NAME
##########          FlexRecCode: 1
##########               Number:                14537
##########   Ligand Source File: /bks/ex4/3D/FG/AARM/FGAARM.xaa.db2.gz
##########                 Rank:                    1
##########               Setnum:                  183
##########             Matchnum:                    1
##########                Cloud:                    1
##########        Electrostatic:           -66.264511
##########                 Gist:             0.000000
##########        Van der Waals:           -29.044376
##########  Ligand Polar Desolv:            36.484989
########## Ligand Apolar Desolv:            -6.021026
##########      Internal Energy:             0.000000
##########      Receptor Energy:             0.000000
########## Receptor Desolvation:             0.000000
########## Receptor Hydrophobic:             0.000000
##########         Total Energy:           -64.844925
##########        Ligand Charge:            -1.000000
##########            Arbitrary:    +999.9990
##########        Ligand Energy:             0.000000

@<TRIPOS>MOLECULE
 ZINC000193168722      none
   40    41    -1     0     0



@<TRIPOS>ATOM
      1 C1        -41.8417   -39.2665     2.3412 C.3        1  LIG1  -0.1400
      2 C2        -43.1086   -39.4618     1.5060 C.3        1  LIG1  -0.0900
      3 C3        -42.7333   -39.6337     0.0566 C.ar       1  LIG1  -0.0200
      4 C4        -42.6322   -38.5315    -0.7666 C.ar       1  LIG1  -0.1300
      5 C5        -42.2876   -38.6877    -2.0978 C.ar       1  LIG1  -0.1000
      6 C6        -42.0419   -39.9483    -2.6117 C.ar       1  LIG1  -0.1400
      7 C7        -42.1396   -41.0591    -1.7989 C.ar       1  LIG1  -0.0800
      8 C8        -42.4815   -40.9081    -0.4544 C.ar       1  LIG1  -0.1300
      9 C9        -42.5880   -42.0939     0.4222 C.2        1  LIG1   0.5600
     10 O1        -41.8835   -42.1859     1.4085 O.2        1  LIG1  -0.5300
     11 N1        -43.4662   -43.0729     0.1278 N.am       1  LIG1  -0.6900
     12 C10       -43.5718   -44.2479     0.9964 C.3        1  LIG1   0.2100
     13 H1        -42.6058   -44.4435     1.4620 H          1  LIG1   0.1000
     14 C11       -43.9920   -45.4611     0.1644 C.3        1  LIG1  -0.1900
     15 C12       -42.9618   -45.7180    -0.9051 C.2        1  LIG1   0.4900
     16 O2        -43.0714   -45.1871    -1.9972 O.co2      1  LIG1  -0.6800
     17 O3        -42.0185   -46.4565    -0.6782 O.co2      1  LIG1  -0.7000
     18 C13       -44.6020   -43.9911     2.0659 C.ar       1  LIG1  -0.0900
     19 C14       -44.4740   -44.5889     3.3059 C.ar       1  LIG1  -0.0800
     20 C15       -45.4181   -44.3543     4.2874 C.ar       1  LIG1  -0.1500
     21 C16       -46.4923   -43.5198     4.0287 C.ar       1  LIG1   0.0800
     22 F1        -47.4157   -43.2893     4.9875 F          1  LIG1  -0.1500
     23 C17       -46.6193   -42.9213     2.7865 C.ar       1  LIG1  -0.1500
     24 C18       -45.6713   -43.1537     1.8081 C.ar       1  LIG1  -0.0800
     25 H2        -42.1132   -39.1422     3.3895 H          1  LIG1   0.0400
     26 H3        -41.1975   -40.1390     2.2337 H          1  LIG1   0.0500
     27 H4        -41.3119   -38.3788     1.9955 H          1  LIG1   0.0700
     28 H5        -43.6385   -40.3493     1.8518 H          1  LIG1   0.1000
     29 H6        -43.7528   -38.5891     1.6134 H          1  LIG1   0.0600
     30 H7        -42.8227   -37.5447    -0.3716 H          1  LIG1   0.1200
     31 H8        -42.2105   -37.8216    -2.7383 H          1  LIG1   0.1200
     32 H9        -41.7734   -40.0634    -3.6514 H          1  LIG1   0.1300
     33 H10       -41.9480   -42.0428    -2.2015 H          1  LIG1   0.1300
     34 H11       -44.0284   -42.9996    -0.6593 H          1  LIG1   0.3900
     35 H12       -44.0705   -46.3354     0.8106 H          1  LIG1   0.0800
     36 H13       -44.9580   -45.2655    -0.3012 H          1  LIG1   0.0600
     37 H14       -43.6360   -45.2397     3.5074 H          1  LIG1   0.1300
     38 H15       -45.3184   -44.8219     5.2558 H          1  LIG1   0.1300
     39 H16       -47.4568   -42.2705     2.5835 H          1  LIG1   0.1300
     40 H17       -45.7699   -42.6867     0.8393 H          1  LIG1   0.1300
@<TRIPOS>BOND
     1    1    2 1
     2    1   25 1
     3    1   26 1
     4    1   27 1
     5    2    3 1
     6    2   28 1
     7    2   29 1
     8    3    8 ar
     9    3    4 ar
    10    4    5 ar
    11    4   30 1
    12    5    6 ar
    13    5   31 1
    14    6    7 ar
    15    6   32 1
    16    7    8 ar
    17    7   33 1
    18    8    9 1
    19    9   10 2
    20    9   11 am
    21   11   12 1
    22   11   34 1
    23   12   13 1
    24   12   14 1
    25   12   18 1
    26   14   15 1
    27   14   35 1
    28   14   36 1
    29   15   16 2
    30   15   17 1
    31   18   24 ar
    32   18   19 ar
    33   19   20 ar
    34   19   37 1
    35   20   21 ar
    36   20   38 1
    37   21   22 1
    38   21   23 ar
    39   23   24 ar
    40   23   39 1
    41   24   40 1
##########                 Name:     ZINC000906008553
##########          Protonation:                 none
##########               SMILES:   C[C@]1(C(=O)[O-])C[C@@H](NS(=O)(=O)C2=CC3=CC(Cl)=CC=C3S2)CCO1
##########            Long Name:   NO_LONG_NAME
##########          FlexRecCode: 1
##########               Number:                43891
##########   Ligand Source File: /bks/ex7/3D/GF/ADRM/GFADRM.xbh.db2.gz
##########                 Rank:                    1
##########               Setnum:                  143
##########             Matchnum:                    1
##########                Cloud:                    1
##########        Electrostatic:           -78.717842
##########                 Gist:             0.000000
##########        Van der Waals:           -19.044928
##########  Ligand Polar Desolv:            36.904087
########## Ligand Apolar Desolv:            -4.451079
##########      Internal Energy:             0.000000
##########      Receptor Energy:             0.000000
########## Receptor Desolvation:             0.000000
########## Receptor Hydrophobic:             0.000000
##########         Total Energy:           -65.309769
##########        Ligand Charge:            -1.000000
##########            Arbitrary:    +999.9990
##########        Ligand Energy:             0.000000

@<TRIPOS>MOLECULE
 ZINC000906008553      none
   39    41    -1     0     0



@<TRIPOS>ATOM
      1 C1        -43.8299   -45.2130     1.9709 C.3        1  LIG1  -0.1600
      2 C2        -44.1579   -44.8710     0.5161 C.3        1  LIG1   0.0500
      3 C3        -43.3079   -45.7114    -0.4016 C.2        1  LIG1   0.5100
      4 O1        -43.7104   -46.7983    -0.7802 O.co2      1  LIG1  -0.6700
      5 O2        -42.2177   -45.3045    -0.7656 O.co2      1  LIG1  -0.6900
      6 C4        -43.8710   -43.3886     0.2630 C.3        1  LIG1  -0.1300
      7 C5        -44.7814   -42.5406     1.1565 C.3        1  LIG1   0.1500
      8 H1        -44.5524   -42.7392     2.2035 H          1  LIG1   0.0800
      9 N1        -44.5658   -41.1205     0.8685 N.pl3      1  LIG1  -1.1000
     10 S1        -43.0665   -40.4505     1.0830 S.o2       1  LIG1   2.7100
     11 O3        -43.2730   -39.0573     1.2721 O.2        1  LIG1  -0.9500
     12 O4        -42.3914   -41.2712     2.0261 O.2        1  LIG1  -0.9400
     13 C6        -42.1960   -40.6223    -0.4393 C.2        1  LIG1  -0.7700
     14 C7        -42.4859   -39.9572    -1.5400 C.2        1  LIG1   0.0400
     15 C8        -41.6334   -40.2577    -2.6789 C.ar       1  LIG1  -0.0900
     16 C9        -41.6710   -39.7298    -3.9875 C.ar       1  LIG1  -0.0500
     17 C10       -40.7662   -40.1489    -4.9300 C.ar       1  LIG1  -0.0400
     18 Cl1       -40.8247   -39.4900    -6.5349 Cl         1  LIG1  -0.0600
     19 C11       -39.8031   -41.0970    -4.6078 C.ar       1  LIG1  -0.0800
     20 C12       -39.7491   -41.6237    -3.3392 C.ar       1  LIG1  -0.0800
     21 C13       -40.6612   -41.2108    -2.3636 C.ar       1  LIG1  -0.1200
     22 S2        -40.8296   -41.6937    -0.6802 S.3        1  LIG1   0.2100
     23 C14       -46.2415   -42.9068     0.8728 C.3        1  LIG1  -0.1700
     24 C15       -46.4369   -44.4078     1.1024 C.3        1  LIG1   0.0500
     25 O5        -45.5390   -45.1374     0.2636 O.3        1  LIG1  -0.3400
     26 H2        -42.7764   -45.0097     2.1633 H          1  LIG1   0.0600
     27 H3        -44.4445   -44.6048     2.6345 H          1  LIG1   0.0700
     28 H4        -44.0352   -46.2682     2.1512 H          1  LIG1   0.0500
     29 H5        -42.8284   -43.1741     0.4975 H          1  LIG1   0.0800
     30 H6        -44.0659   -43.1534    -0.7833 H          1  LIG1   0.0700
     31 H7        -45.3011   -40.5726     0.5523 H          1  LIG1   0.4200
     32 H8        -43.2951   -39.2440    -1.5919 H          1  LIG1   0.1600
     33 H9        -42.4159   -38.9926    -4.2483 H          1  LIG1   0.1400
     34 H10       -39.0952   -41.4213    -5.3562 H          1  LIG1   0.1500
     35 H11       -38.9980   -42.3604    -3.0950 H          1  LIG1   0.1400
     36 H12       -46.8941   -42.3478     1.5434 H          1  LIG1   0.0800
     37 H13       -46.4843   -42.6618    -0.1611 H          1  LIG1   0.0800
     38 H14       -46.2330   -44.6453     2.1465 H          1  LIG1   0.0500
     39 H15       -47.4638   -44.6819     0.8609 H          1  LIG1   0.0900
@<TRIPOS>BOND
     1    1    2 1
     2    1   26 1
     3    1   27 1
     4    1   28 1
     5    2   25 1
     6    2    3 1
     7    2    6 1
     8    3    4 2
     9    3    5 1
    10    6    7 1
    11    6   29 1
    12    6   30 1
    13    7    8 1
    14    7    9 1
    15    7   23 1
    16    9   10 1
    17    9   31 1
    18   10   11 2
    19   10   12 2
    20   10   13 1
    21   13   22 1
    22   13   14 2
    23   14   15 1
    24   14   32 1
    25   15   21 ar
    26   15   16 ar
    27   16   17 ar
    28   16   33 1
    29   17   18 1
    30   17   19 ar
    31   19   20 ar
    32   19   34 1
    33   20   21 ar
    34   20   35 1
    35   21   22 1
    36   23   24 1
    37   23   36 1
    38   23   37 1
    39   24   25 1
    40   24   38 1
    41   24   39 1
##########                 Name:     ZINC000114347102
##########          Protonation:                 none
##########               SMILES:   CN1C=CC=C(NC(=O)C2=CN(C3=CC=C(Cl)C=C3Cl)N=C2)C1=O
##########            Long Name:   NO_LONG_NAME
##########          FlexRecCode: 1
##########               Number:                36421
##########   Ligand Source File: /bks/ex4/3D/FG/ADRN/FGADRN.xamr.db2.gz
##########                 Rank:                    1
##########               Setnum:                   45
##########             Matchnum:                    1
##########                Cloud:                    1
##########        Electrostatic:           -38.145218
##########                 Gist:             0.000000
##########        Van der Waals:           -35.051674
##########  Ligand Polar Desolv:            14.262192
########## Ligand Apolar Desolv:            -5.872171
##########      Internal Energy:             0.000000
##########      Receptor Energy:             0.000000
########## Receptor Desolvation:             0.000000
########## Receptor Hydrophobic:             0.000000
##########         Total Energy:           -64.806870
##########        Ligand Charge:             0.000000
##########            Arbitrary:    +999.9990
##########        Ligand Energy:             0.000000

@<TRIPOS>MOLECULE
 ZINC000053673530      none
   43    46     0     0     0



@<TRIPOS>ATOM
      1 C1        -41.0541   -50.4663    -1.0573 C.3        1  LIG1  -0.0800
      2 C2        -41.6742   -49.0937    -1.1097 C.2        1  LIG1   0.3000
      3 N1        -42.8131   -48.7453    -0.5673 N.2        1  LIG1  -0.5200
      4 C3        -43.0535   -47.4530    -0.8111 C.2        1  LIG1   0.2000
      5 S1        -44.4697   -46.5534    -0.2732 S.3        1  LIG1   0.1100
      6 C4        -43.7533   -45.2380     0.7503 C.3        1  LIG1  -0.1600
      7 C5        -43.4575   -44.0367    -0.1102 C.2        1  LIG1   0.5300
      8 O1        -42.6888   -44.1336    -1.0432 O.2        1  LIG1  -0.4800
      9 N2        -44.0475   -42.8548     0.1570 N.am       1  LIG1  -0.6100
     10 C6        -45.3791   -42.7994     0.7787 C.3        1  LIG1   0.1100
     11 C7        -45.2452   -42.1580     2.1633 C.3        1  LIG1  -0.0700
     12 C8        -44.3686   -40.9282     2.0561 C.2        1  LIG1  -0.1700
     13 C9        -43.5297   -40.6618     1.0371 C.2        1  LIG1  -0.1100
     14 C10       -42.8292   -39.4688     1.1836 C.2        1  LIG1  -0.1200
     15 C11       -43.0946   -38.7775     2.2875 C.2        1  LIG1  -0.2100
     16 S2        -44.2936   -39.6338     3.2449 S.3        1  LIG1   0.1100
     17 C12       -43.3741   -41.5872    -0.1594 C.3        1  LIG1   0.2600
     18 H1        -43.8394   -41.1378    -1.0367 H          1  LIG1   0.1000
     19 C13       -41.9118   -41.8339    -0.4272 C.ar       1  LIG1  -0.0500
     20 C14       -41.0018   -41.7902     0.6124 C.ar       1  LIG1  -0.0800
     21 C15       -39.6603   -42.0165     0.3667 C.ar       1  LIG1  -0.1100
     22 C16       -39.2290   -42.2869    -0.9184 C.ar       1  LIG1  -0.1200
     23 C17       -40.1392   -42.3316    -1.9579 C.ar       1  LIG1  -0.1200
     24 C18       -41.4812   -42.1095    -1.7116 C.ar       1  LIG1  -0.1100
     25 N3        -42.0603   -46.9646    -1.5167 N.2        1  LIG1  -0.3300
     26 N4        -41.1503   -48.0154    -1.7161 N.pl3      1  LIG1  -0.4800
     27 H2        -41.7053   -51.1380    -0.4980 H          1  LIG1   0.1000
     28 H3        -40.9254   -50.8457    -2.0710 H          1  LIG1   0.1000
     29 H4        -40.0834   -50.4079    -0.5651 H          1  LIG1   0.0900
     30 H5        -44.4604   -44.9599     1.5319 H          1  LIG1   0.1200
     31 H6        -42.8297   -45.5947     1.2060 H          1  LIG1   0.1200
     32 H7        -46.0470   -42.1995     0.1605 H          1  LIG1   0.0900
     33 H8        -45.7779   -43.8088     0.8801 H          1  LIG1   0.1000
     34 H9        -46.2311   -41.8720     2.5296 H          1  LIG1   0.0900
     35 H10       -44.7913   -42.8700     2.8526 H          1  LIG1   0.0900
     36 H11       -42.1163   -39.1264     0.4481 H          1  LIG1   0.1400
     37 H12       -42.6419   -37.8341     2.5553 H          1  LIG1   0.1700
     38 H13       -41.3387   -41.5789     1.6165 H          1  LIG1   0.1100
     39 H14       -38.9492   -41.9817     1.1790 H          1  LIG1   0.1200
     40 H15       -38.1810   -42.4631    -1.1104 H          1  LIG1   0.1200
     41 H16       -39.8022   -42.5425    -2.9620 H          1  LIG1   0.1200
     42 H17       -42.1923   -42.1444    -2.5236 H          1  LIG1   0.1200
     43 H18       -40.3113   -47.9727    -2.2013 H          1  LIG1   0.4400
@<TRIPOS>BOND
     1    1    2 1
     2    1   27 1
     3    1   28 1
     4    1   29 1
     5    2   26 1
     6    2    3 2
     7    3    4 1
     8    4    5 1
     9    4   25 2
    10    5    6 1
    11    6    7 1
    12    6   30 1
    13    6   31 1
    14    7    8 2
    15    7    9 am
    16    9   17 1
    17    9   10 1
    18   10   11 1
    19   10   32 1
    20   10   33 1
    21   11   12 1
    22   11   34 1
    23   11   35 1
    24   12   16 1
    25   12   13 2
    26   13   14 1
    27   13   17 1
    28   14   15 2
    29   14   36 1
    30   15   16 1
    31   15   37 1
    32   17   18 1
    33   17   19 1
    34   19   24 ar
    35   19   20 ar
    36   20   21 ar
    37   20   38 1
    38   21   22 ar
    39   21   39 1
    40   22   23 ar
    41   22   40 1
    42   23   24 ar
    43   23   41 1
    44   24   42 1
    45   25   26 1
    46   26   43 1
##########                 Name:     ZINC000757653839
##########          Protonation:                 none
##########               SMILES:   O=C([O-])C1=CC(NS(=O)(=O)C2=CN=C3C=CSC3=C2)=CC=C1O
##########            Long Name:   NO_LONG_NAME
##########          FlexRecCode: 1
##########               Number:                 9693
##########   Ligand Source File: /bks/ex4/3D/FF/CDMM/FFCDMM.xaa.db2.gz
##########                 Rank:                    1
##########               Setnum:                   60
##########             Matchnum:                    1
##########                Cloud:                    1
##########        Electrostatic:           -77.250595
##########                 Gist:             0.000000
##########        Van der Waals:           -22.735447
##########  Ligand Polar Desolv:            37.373760
########## Ligand Apolar Desolv:            -2.146373
##########      Internal Energy:             0.000000
##########      Receptor Energy:             0.000000
########## Receptor Desolvation:             0.000000
########## Receptor Hydrophobic:             0.000000
##########         Total Energy:           -64.758652
##########        Ligand Charge:            -1.000000
##########            Arbitrary:    +999.9990
##########        Ligand Energy:             0.000000

@<TRIPOS>MOLECULE
 ZINC000757653839      none
   32    34    -1     0     0



@<TRIPOS>ATOM
      1 O1        -42.8858   -47.5720     0.0342 O.co2      1  LIG1  -0.6900
      2 C1        -42.8780   -46.3789    -0.2362 C.2        1  LIG1   0.5200
      3 O2        -42.2227   -45.9711    -1.1854 O.co2      1  LIG1  -0.6700
      4 C2        -43.6617   -45.4350     0.5767 C.ar       1  LIG1  -0.1500
      5 C3        -43.6600   -44.0712     0.2673 C.ar       1  LIG1  -0.0700
      6 C4        -44.3998   -43.1903     1.0363 C.ar       1  LIG1   0.1000
      7 N1        -44.4001   -41.8250     0.7282 N.pl3      1  LIG1  -1.0500
      8 S1        -42.9804   -40.9726     0.7425 S.o2       1  LIG1   2.7000
      9 O3        -43.3319   -39.6111     0.9478 O.2        1  LIG1  -0.9500
     10 O4        -42.0940   -41.6836     1.5958 O.2        1  LIG1  -0.9500
     11 C5        -42.2967   -41.0709    -0.8784 C.ar       1  LIG1  -0.7300
     12 C6        -41.4366   -42.1049    -1.2156 C.ar       1  LIG1   0.2200
     13 N2        -40.9182   -42.1961    -2.4153 N.ar       1  LIG1  -0.4700
     14 C7        -41.1876   -41.2995    -3.3820 C.ar       1  LIG1   0.1700
     15 C8        -40.7015   -41.2551    -4.7500 C.2        1  LIG1  -0.1200
     16 C9        -41.1485   -40.2410    -5.4669 C.2        1  LIG1  -0.1600
     17 S2        -42.2248   -39.2216    -4.5307 S.3        1  LIG1   0.1300
     18 C10       -42.0483   -40.2331    -3.1037 C.ar       1  LIG1  -0.2300
     19 C11       -42.6155   -40.1223    -1.8299 C.ar       1  LIG1   0.0900
     20 C12       -45.1441   -43.6584     2.1146 C.ar       1  LIG1  -0.1400
     21 C13       -45.1504   -45.0029     2.4266 C.ar       1  LIG1  -0.1500
     22 C14       -44.4189   -45.8993     1.6625 C.ar       1  LIG1   0.1400
     23 O5        -44.4270   -47.2208     1.9706 O.3        1  LIG1  -0.4700
     24 H1        -43.0826   -43.7064    -0.5693 H          1  LIG1   0.1400
     25 H2        -45.2319   -41.3781     0.5062 H          1  LIG1   0.4300
     26 H3        -41.1888   -42.8501    -0.4741 H          1  LIG1   0.1800
     27 H4        -40.0250   -41.9957    -5.1501 H          1  LIG1   0.1600
     28 H5        -40.8847   -40.0618    -6.4987 H          1  LIG1   0.1800
     29 H6        -43.2868   -39.3097    -1.5946 H          1  LIG1   0.1600
     30 H7        -45.7194   -42.9659     2.7111 H          1  LIG1   0.1500
     31 H8        -45.7303   -45.3583     3.2655 H          1  LIG1   0.1300
     32 H9        -44.9773   -47.4434     2.7339 H          1  LIG1   0.3900
@<TRIPOS>BOND
     1    1    2 2
     2    2    3 1
     3    2    4 1
     4    4   22 ar
     5    4    5 ar
     6    5    6 ar
     7    5   24 1
     8    6    7 1
     9    6   20 ar
    10    7    8 1
    11    7   25 1
    12    8    9 2
    13    8   10 2
    14    8   11 1
    15   11   19 ar
    16   11   12 ar
    17   12   13 ar
    18   12   26 1
    19   13   14 ar
    20   14   18 ar
    21   14   15 1
    22   15   16 2
    23   15   27 1
    24   16   17 1
    25   16   28 1
    26   17   18 1
    27   18   19 ar
    28   19   29 1
    29   20   21 ar
    30   20   30 1
    31   21   22 ar
    32   21   31 1
    33   22   23 1
    34   23   32 1
##########                 Name:     ZINC000737747593
##########          Protonation:                 none
##########               SMILES:   COC[C@H](C)C(=O)NC1=C(C(=O)[O-])SC(C2=CC=CC=C2Cl)=C1
##########            Long Name:   NO_LONG_NAME
##########          FlexRecCode: 1
##########               Number:                 7163
##########   Ligand Source File: /bks/ex4/3D/FH/ADRM/FHADRM.xab.db2.gz
##########                 Rank:                    1
##########               Setnum:                   65
##########             Matchnum:                    1
##########                Cloud:                    1
##########        Electrostatic:           -64.645271
##########                 Gist:             0.000000
##########        Van der Waals:           -31.100998
##########  Ligand Polar Desolv:            36.081631
########## Ligand Apolar Desolv:            -5.349673
##########      Internal Energy:             0.000000
##########      Receptor Energy:             0.000000
########## Receptor Desolvation:             0.000000
########## Receptor Hydrophobic:             0.000000
##########         Total Energy:           -65.014313
##########        Ligand Charge:            -1.000000
##########            Arbitrary:    +999.9990
##########        Ligand Energy:             0.000000

@<TRIPOS>MOLECULE
 ZINC000193021073      none
   36    37     0     0     0



@<TRIPOS>ATOM
      1 C1        -47.2737   -41.2668     2.5017 C.3        1  LIG1   0.0200
      2 O1        -47.0527   -41.7603     1.1790 O.3        1  LIG1  -0.3100
      3 C2        -46.1960   -42.8079     1.0460 C.ar       1  LIG1   0.1500
      4 C3        -46.6732   -44.1068     1.1046 C.ar       1  LIG1  -0.2100
      5 C4        -45.8008   -45.1712     0.9691 C.ar       1  LIG1   0.0000
      6 C5        -44.4512   -44.9433     0.7754 C.ar       1  LIG1  -0.6900
      7 S1        -43.3458   -46.3047     0.6036 S.o2       1  LIG1   2.7000
      8 N1        -42.8113   -46.6968     2.1211 N.pl3      1  LIG1  -1.2500
      9 O2        -44.1287   -47.4034     0.1575 O.2        1  LIG1  -0.9600
     10 O3        -42.2156   -45.8166    -0.1061 O.2        1  LIG1  -0.9600
     11 C6        -43.9666   -43.6500     0.7157 C.ar       1  LIG1  -0.0100
     12 C7        -44.8364   -42.5773     0.8444 C.ar       1  LIG1   0.1000
     13 N2        -44.3482   -41.2663     0.7839 N.am       1  LIG1  -0.6600
     14 C8        -43.0912   -40.9960     1.1883 C.2        1  LIG1   0.5400
     15 O4        -42.3799   -41.8922     1.6063 O.2        1  LIG1  -0.5000
     16 C9        -42.5983   -39.6726     1.1272 C.2        1  LIG1  -0.2100
     17 C10       -41.5066   -39.3892     0.3717 C.2        1  LIG1   0.0200
     18 C11       -40.9294   -40.3923    -0.4416 C.2        1  LIG1  -0.1900
     19 C12       -39.9454   -41.2637    -0.0519 C.2        1  LIG1  -0.0900
     20 C13       -39.5698   -42.1360    -1.0443 C.2        1  LIG1  -0.1200
     21 C14       -40.2198   -41.9883    -2.2074 C.2        1  LIG1  -0.1800
     22 Cl1       -39.9403   -42.9578    -3.6201 Cl         1  LIG1  -0.0200
     23 S2        -41.3642   -40.7265    -2.1121 S.3        1  LIG1   0.2500
     24 H1        -47.9756   -40.4336     2.4660 H          1  LIG1   0.1100
     25 H2        -47.6855   -42.0625     3.1223 H          1  LIG1   0.0600
     26 H3        -46.3285   -40.9277     2.9256 H          1  LIG1   0.0600
     27 H4        -47.7270   -44.2884     1.2565 H          1  LIG1   0.1400
     28 H5        -46.1748   -46.1833     1.0152 H          1  LIG1   0.1500
     29 H6        -43.2979   -47.3449     2.6542 H          1  LIG1   0.4200
     30 H7        -42.0118   -46.2784     2.4769 H          1  LIG1   0.4200
     31 H8        -42.9117   -43.4748     0.5642 H          1  LIG1   0.1800
     32 H9        -44.9145   -40.5527     0.4508 H          1  LIG1   0.4200
     33 H10       -43.0903   -38.8870     1.6813 H          1  LIG1   0.1500
     34 H11       -41.0787   -38.3977     0.3917 H          1  LIG1   0.1500
     35 H12       -39.5094   -41.2643     0.9362 H          1  LIG1   0.1500
     36 H13       -38.8062   -42.8857    -0.8984 H          1  LIG1   0.1500
@<TRIPOS>BOND
     1    1    2 1
     2    1   24 1
     3    1   25 1
     4    1   26 1
     5    2    3 1
     6    3   12 ar
     7    3    4 ar
     8    4    5 ar
     9    4   27 1
    10    5    6 ar
    11    5   28 1
    12    6    7 1
    13    6   11 ar
    14    7    8 1
    15    7    9 2
    16    7   10 2
    17    8   29 1
    18    8   30 1
    19   11   12 ar
    20   11   31 1
    21   12   13 1
    22   13   14 am
    23   13   32 1
    24   14   15 2
    25   14   16 1
    26   16   17 2
    27   16   33 1
    28   17   18 1
    29   17   34 1
    30   18   23 1
    31   18   19 2
    32   19   20 1
    33   19   35 1
    34   20   21 2
    35   20   36 1
    36   21   22 1
    37   21   23 1
##########                 Name:     ZINC000169615872
##########          Protonation:                 none
##########               SMILES:   O=C([O-])CSC1=NC2=CC(Cl)=CC=C2N1CC1=CC=CC=C1
##########            Long Name:   NO_LONG_NAME
##########          FlexRecCode: 1
##########               Number:                21511
##########   Ligand Source File: /bks/ex5/3D/EH/AARM/EHAARM.xaa.db2.gz
##########                 Rank:                    1
##########               Setnum:                  162
##########             Matchnum:                    1
##########                Cloud:                    1
##########        Electrostatic:           -72.942039
##########                 Gist:             0.000000
##########        Van der Waals:           -18.240479
##########  Ligand Polar Desolv:            35.164024
########## Ligand Apolar Desolv:            -8.410871
##########      Internal Energy:             0.000000
##########      Receptor Energy:             0.000000
########## Receptor Desolvation:             0.000000
########## Receptor Hydrophobic:             0.000000
##########         Total Energy:           -64.429367
##########        Ligand Charge:            -1.000000
##########            Arbitrary:    +999.9990
##########        Ligand Energy:             0.000000

@<TRIPOS>MOLECULE
 ZINC000169615872      none
   34    36    -1     0     0



@<TRIPOS>ATOM
      1 O1        -44.0145   -45.0063    -1.8407 O.co2      1  LIG1  -0.6800
      2 C1        -43.1803   -44.6255    -1.0372 C.2        1  LIG1   0.5100
      3 O2        -42.2188   -45.3286    -0.7772 O.co2      1  LIG1  -0.6800
      4 C2        -43.3345   -43.2832    -0.3698 C.3        1  LIG1  -0.1600
      5 S1        -43.4294   -43.5085     1.4236 S.3        1  LIG1   0.0500
      6 C3        -43.6015   -41.8308     1.9341 C.2        1  LIG1   0.2700
      7 N1        -42.6084   -41.0250     2.2199 N.2        1  LIG1  -0.5000
      8 C4        -43.0961   -39.8078     2.5760 C.ar       1  LIG1   0.0700
      9 C5        -42.4932   -38.6100     2.9675 C.ar       1  LIG1  -0.0600
     10 C6        -43.2764   -37.5180     3.2740 C.ar       1  LIG1  -0.0400
     11 Cl1       -42.5271   -36.0294     3.7600 Cl         1  LIG1  -0.0700
     12 C7        -44.6594   -37.5999     3.1961 C.ar       1  LIG1  -0.1100
     13 C8        -45.2692   -38.7765     2.8108 C.ar       1  LIG1  -0.0900
     14 C9        -44.4968   -39.8844     2.4991 C.ar       1  LIG1   0.0500
     15 N2        -44.7901   -41.1742     2.0853 N.pl3      1  LIG1  -0.4700
     16 C10       -46.1257   -41.7304     1.8549 C.3        1  LIG1   0.1500
     17 C11       -46.6429   -42.3407     3.1320 C.ar       1  LIG1  -0.1200
     18 C12       -46.3859   -43.6686     3.4172 C.ar       1  LIG1  -0.1000
     19 C13       -46.8603   -44.2284     4.5886 C.ar       1  LIG1  -0.1300
     20 C14       -47.5915   -43.4602     5.4752 C.ar       1  LIG1  -0.1100
     21 C15       -47.8477   -42.1319     5.1906 C.ar       1  LIG1  -0.1200
     22 C16       -47.3696   -41.5709     4.0211 C.ar       1  LIG1  -0.0900
     23 H1        -42.4766   -42.6561    -0.6123 H          1  LIG1   0.0900
     24 H2        -44.2469   -42.8037    -0.7245 H          1  LIG1   0.0900
     25 H3        -41.4174   -38.5401     3.0304 H          1  LIG1   0.1400
     26 H4        -45.2625   -36.7375     3.4391 H          1  LIG1   0.1400
     27 H5        -46.3460   -38.8339     2.7525 H          1  LIG1   0.1300
     28 H6        -46.7992   -40.9362     1.5328 H          1  LIG1   0.1100
     29 H7        -46.0717   -42.4967     1.0817 H          1  LIG1   0.1000
     30 H8        -45.8146   -44.2688     2.7244 H          1  LIG1   0.1200
     31 H9        -46.6600   -45.2661     4.8110 H          1  LIG1   0.1200
     32 H10       -47.9627   -43.8977     6.3901 H          1  LIG1   0.1200
     33 H11       -48.4193   -41.5318     5.8831 H          1  LIG1   0.1300
     34 H12       -47.5699   -40.5332     3.7988 H          1  LIG1   0.1300
@<TRIPOS>BOND
     1    1    2 2
     2    2    3 1
     3    2    4 1
     4    4    5 1
     5    4   23 1
     6    4   24 1
     7    5    6 1
     8    6   15 1
     9    6    7 2
    10    7    8 1
    11    8   14 ar
    12    8    9 ar
    13    9   10 ar
    14    9   25 1
    15   10   11 1
    16   10   12 ar
    17   12   13 ar
    18   12   26 1
    19   13   14 ar
    20   13   27 1
    21   14   15 1
    22   15   16 1
    23   16   17 1
    24   16   28 1
    25   16   29 1
    26   17   22 ar
    27   17   18 ar
    28   18   19 ar
    29   18   30 1
    30   19   20 ar
    31   19   31 1
    32   20   21 ar
    33   20   32 1
    34   21   22 ar
    35   21   33 1
    36   22   34 1
##########                 Name:     ZINC000745636291
##########          Protonation:                 none
##########               SMILES:   CN(CC1=CC=CC=C1)C(=O)COC(=O)[C@H]1SCCC2=C1C=CS2
##########            Long Name:   NO_LONG_NAME
##########          FlexRecCode: 1
##########               Number:                50263
##########   Ligand Source File: /bks/ex4/3D/FG/ADRN/FGADRN.xaur.db2.gz
##########                 Rank:                    1
##########               Setnum:                  166
##########             Matchnum:                    1
##########                Cloud:                    1
##########        Electrostatic:           -41.310715
##########                 Gist:             0.000000
##########        Van der Waals:           -24.187080
##########  Ligand Polar Desolv:             8.232183
########## Ligand Apolar Desolv:            -6.897276
##########      Internal Energy:             0.000000
##########      Receptor Energy:             0.000000
########## Receptor Desolvation:             0.000000
########## Receptor Hydrophobic:             0.000000
##########         Total Energy:           -64.162888
##########        Ligand Charge:             0.000000
##########            Arbitrary:    +999.9990
##########        Ligand Energy:             0.000000

@<TRIPOS>MOLECULE
 ZINC000155554746      none
   40    42    -1     0     0



@<TRIPOS>ATOM
      1 C1        -42.9469   -46.2394     2.9058 C.3        1  LIG1  -0.0600
      2 C2        -43.0316   -45.4725     1.6112 C.2        1  LIG1   0.1600
      3 C3        -42.7605   -45.9782     0.3548 C.2        1  LIG1  -0.5000
      4 C4        -42.3405   -47.3466     0.0306 C.2        1  LIG1   0.6100
      5 O1        -43.0239   -48.0347    -0.7044 O.2        1  LIG1  -0.5700
      6 N1        -41.1979   -47.8409     0.5469 N.am       1  LIG1  -0.6800
      7 C5        -40.7989   -49.1413     0.2388 C.ar       1  LIG1   0.2100
      8 C6        -40.0605   -49.8774     1.1600 C.ar       1  LIG1  -0.1300
      9 C7        -39.6649   -51.1614     0.8592 C.ar       1  LIG1  -0.0500
     10 C8        -40.0060   -51.7253    -0.3736 C.ar       1  LIG1  -0.0800
     11 C9        -39.5967   -53.0606    -0.6899 C.1        1  LIG1   0.2700
     12 N2        -39.2720   -54.1199    -0.9407 N.1        1  LIG1  -0.4500
     13 C10       -40.7478   -50.9827    -1.2968 C.ar       1  LIG1  -0.0500
     14 C11       -41.1450   -49.7014    -0.9869 C.ar       1  LIG1  -0.1700
     15 C12       -42.9761   -44.8748    -0.5952 C.2        1  LIG1   0.5100
     16 O2        -42.8414   -44.9178    -1.8037 O.2        1  LIG1  -0.6200
     17 N3        -43.3533   -43.8066     0.1376 N.am       1  LIG1  -0.4500
     18 C13       -43.6758   -42.4784    -0.3899 C.3        1  LIG1   0.1900
     19 C14       -44.0508   -41.5636     0.7476 C.ar       1  LIG1  -0.0900
     20 C15       -45.3679   -41.4730     1.1561 C.ar       1  LIG1  -0.0900
     21 C16       -45.7121   -40.6338     2.1996 C.ar       1  LIG1  -0.1300
     22 C17       -44.7393   -39.8848     2.8345 C.ar       1  LIG1  -0.1100
     23 C18       -43.4215   -39.9746     2.4268 C.ar       1  LIG1  -0.1200
     24 C19       -43.0756   -40.8187     1.3868 C.ar       1  LIG1  -0.0100
     25 Cl1       -41.4208   -40.9320     0.8743 Cl         1  LIG1  -0.0500
     26 N4        -43.3901   -44.1810     1.4841 N.2        1  LIG1  -0.3700
     27 H1        -42.6309   -47.2626     2.7018 H          1  LIG1   0.0500
     28 H2        -42.2231   -45.7603     3.5652 H          1  LIG1   0.0700
     29 H3        -43.9249   -46.2501     3.3866 H          1  LIG1   0.0700
     30 H4        -40.6532   -47.2925     1.1328 H          1  LIG1   0.4200
     31 H5        -39.7972   -49.4409     2.1121 H          1  LIG1   0.1500
     32 H6        -39.0914   -51.7321     1.5745 H          1  LIG1   0.1300
     33 H7        -41.0128   -51.4152    -2.2504 H          1  LIG1   0.1300
     34 H8        -41.7184   -49.1272    -1.6996 H          1  LIG1   0.1300
     35 H9        -42.8078   -42.0737    -0.9104 H          1  LIG1   0.0900
     36 H10       -44.5123   -42.5564    -1.0843 H          1  LIG1   0.0800
     37 H11       -46.1285   -42.0575     0.6599 H          1  LIG1   0.1300
     38 H12       -46.7415   -40.5632     2.5185 H          1  LIG1   0.1200
     39 H13       -45.0089   -39.2288     3.6491 H          1  LIG1   0.1300
     40 H14       -42.6615   -39.3892     2.9230 H          1  LIG1   0.1300
@<TRIPOS>BOND
     1    1    2 1
     2    1   27 1
     3    1   28 1
     4    1   29 1
     5    2   26 1
     6    2    3 2
     7    3    4 1
     8    3   15 1
     9    4    5 2
    10    4    6 am
    11    6    7 1
    12    6   30 1
    13    7   14 ar
    14    7    8 ar
    15    8    9 ar
    16    8   31 1
    17    9   10 ar
    18    9   32 1
    19   10   11 1
    20   10   13 ar
    21   11   12 3
    22   13   14 ar
    23   13   33 1
    24   14   34 1
    25   15   16 2
    26   15   17 am
    27   17   18 1
    28   17   26 1
    29   18   19 1
    30   18   35 1
    31   18   36 1
    32   19   24 ar
    33   19   20 ar
    34   20   21 ar
    35   20   37 1
    36   21   22 ar
    37   21   38 1
    38   22   23 ar
    39   22   39 1
    40   23   24 ar
    41   23   40 1
    42   24   25 1
##########                 Name:     ZINC000659231184
##########          Protonation:                 none
##########               SMILES:   CN(C(=O)[C@H]1CCC[C@H]1CC1=CC=CC=C1)[C@H]1C[C@@H](C(=O)[O-])C1
##########            Long Name:   NO_LONG_NAME
##########          FlexRecCode: 1
##########               Number:                 1225
##########   Ligand Source File: /bks/ex6/3D/DF/ADRM/DFADRM.xmc.db2.gz
##########                 Rank:                    1
##########               Setnum:                   16
##########             Matchnum:                    1
##########                Cloud:                    1
##########        Electrostatic:           -69.247154
##########                 Gist:             0.000000
##########        Van der Waals:           -19.798140
##########  Ligand Polar Desolv:            32.932194
########## Ligand Apolar Desolv:            -8.384967
##########      Internal Energy:             0.000000
##########      Receptor Energy:             0.000000
########## Receptor Desolvation:             0.000000
########## Receptor Hydrophobic:             0.000000
##########         Total Energy:           -64.498070
##########        Ligand Charge:            -1.000000
##########            Arbitrary:    +999.9990
##########        Ligand Energy:             0.000000

@<TRIPOS>MOLECULE
 ZINC000659231184      none
   47    49    -1     0     0



@<TRIPOS>ATOM
      1 C1        -45.4452   -42.0397    -0.2384 C.3        1  LIG1   0.0700
      2 N1        -44.3530   -42.5936     0.5656 N.am       1  LIG1  -0.6000
      3 C2        -43.3198   -41.8090     0.9306 C.2        1  LIG1   0.5200
      4 O1        -42.4156   -42.2677     1.5962 O.2        1  LIG1  -0.5500
      5 C3        -43.2879   -40.3619     0.5115 C.3        1  LIG1  -0.1100
      6 H1        -44.3038   -39.9786     0.4161 H          1  LIG1   0.0900
      7 C4        -42.5039   -39.5290     1.5467 C.3        1  LIG1  -0.1100
      8 C5        -41.7397   -38.4855     0.6947 C.3        1  LIG1  -0.1200
      9 C6        -41.3292   -39.3007    -0.5568 C.3        1  LIG1  -0.1100
     10 C7        -42.5420   -40.2167    -0.8265 C.3        1  LIG1  -0.0700
     11 H2        -43.1948   -39.7622    -1.5717 H          1  LIG1   0.0800
     12 C8        -42.0659   -41.5869    -1.3134 C.3        1  LIG1  -0.0900
     13 C9        -41.3064   -41.4250    -2.6050 C.ar       1  LIG1  -0.0700
     14 C10       -40.2956   -42.3107    -2.9280 C.ar       1  LIG1  -0.1200
     15 C11       -39.5989   -42.1623    -4.1127 C.ar       1  LIG1  -0.1200
     16 C12       -39.9131   -41.1276    -4.9742 C.ar       1  LIG1  -0.1300
     17 C13       -40.9250   -40.2431    -4.6519 C.ar       1  LIG1  -0.1200
     18 C14       -41.6245   -40.3942    -3.4692 C.ar       1  LIG1  -0.1200
     19 C15       -44.3839   -44.0005     0.9729 C.3        1  LIG1   0.1100
     20 H3        -44.8822   -44.1531     1.9303 H          1  LIG1   0.1100
     21 C16       -44.8705   -44.9516    -0.1332 C.3        1  LIG1  -0.1200
     22 C17       -43.7803   -45.9291     0.3364 C.3        1  LIG1  -0.1700
     23 H4        -44.1124   -46.6100     1.1202 H          1  LIG1   0.0800
     24 C18       -43.0759   -46.6359    -0.7928 C.2        1  LIG1   0.5000
     25 O2        -42.9322   -47.8462    -0.7593 O.co2      1  LIG1  -0.7000
     26 O3        -42.6499   -45.9974    -1.7401 O.co2      1  LIG1  -0.7000
     27 C19       -43.0192   -44.7018     0.8701 C.3        1  LIG1  -0.1200
     28 H5        -46.1833   -42.8175    -0.4335 H          1  LIG1   0.0700
     29 H6        -45.9159   -41.2198     0.3040 H          1  LIG1   0.0800
     30 H7        -45.0488   -41.6694    -1.1839 H          1  LIG1   0.0600
     31 H8        -43.1887   -39.0324     2.2342 H          1  LIG1   0.0700
     32 H9        -41.8042   -40.1611     2.0938 H          1  LIG1   0.0900
     33 H10       -42.3936   -37.6582     0.4193 H          1  LIG1   0.0700
     34 H11       -40.8593   -38.1234     1.2256 H          1  LIG1   0.0700
     35 H12       -41.1565   -38.6374    -1.4043 H          1  LIG1   0.0700
     36 H13       -40.4397   -39.8958    -0.3494 H          1  LIG1   0.0700
     37 H14       -41.4143   -42.0332    -0.5622 H          1  LIG1   0.0800
     38 H15       -42.9278   -42.2339    -1.4774 H          1  LIG1   0.0800
     39 H16       -40.0497   -43.1187    -2.2546 H          1  LIG1   0.1200
     40 H17       -38.8086   -42.8539    -4.3647 H          1  LIG1   0.1200
     41 H18       -39.3686   -41.0123    -5.8999 H          1  LIG1   0.1200
     42 H19       -41.1706   -39.4350    -5.3251 H          1  LIG1   0.1200
     43 H20       -42.4149   -39.7026    -3.2172 H          1  LIG1   0.1200
     44 H21       -45.8843   -45.3204     0.0228 H          1  LIG1   0.0600
     45 H22       -44.7088   -44.5685    -1.1408 H          1  LIG1   0.0900
     46 H23       -42.3509   -44.2498     0.1371 H          1  LIG1   0.0800
     47 H24       -42.5396   -44.8707     1.8342 H          1  LIG1   0.0600
@<TRIPOS>BOND
     1    1    2 1
     2    1   28 1
     3    1   29 1
     4    1   30 1
     5    2    3 am
     6    2   19 1
     7    3    4 2
     8    3    5 1
     9    5    6 1
    10    5   10 1
    11    5    7 1
    12    7    8 1
    13    7   31 1
    14    7   32 1
    15    8    9 1
    16    8   33 1
    17    8   34 1
    18    9   10 1
    19    9   35 1
    20    9   36 1
    21   10   11 1
    22   10   12 1
    23   12   13 1
    24   12   37 1
    25   12   38 1
    26   13   18 ar
    27   13   14 ar
    28   14   15 ar
    29   14   39 1
    30   15   16 ar
    31   15   40 1
    32   16   17 ar
    33   16   41 1
    34   17   18 ar
    35   17   42 1
    36   18   43 1
    37   19   20 1
    38   19   27 1
    39   19   21 1
    40   21   22 1
    41   21   44 1
    42   21   45 1
    43   22   23 1
    44   22   24 1
    45   22   27 1
    46   24   25 2
    47   24   26 1
    48   27   46 1
    49   27   47 1
##########                 Name:     ZINC000506817490
##########          Protonation:                 none
##########               SMILES:   O=S(=O)([N-]C1=NC=C(CC2=CC=C(Br)C=C2)S1)C1=CSC=C1
##########            Long Name:   NO_LONG_NAME
##########          FlexRecCode: 1
##########               Number:                21528
##########   Ligand Source File: /bks/ex1/3D/HI/ADRM/HIADRM.xad.db2.gz
##########                 Rank:                    1
##########               Setnum:                  188
##########             Matchnum:                    1
##########                Cloud:                    1
##########        Electrostatic:           -66.907593
##########                 Gist:             0.000000
##########        Van der Waals:           -25.174631
##########  Ligand Polar Desolv:            31.221489
########## Ligand Apolar Desolv:            -4.551630
##########      Internal Energy:             0.000000
##########      Receptor Energy:             0.000000
########## Receptor Desolvation:             0.000000
########## Receptor Hydrophobic:             0.000000
##########         Total Energy:           -65.412361
##########        Ligand Charge:            -1.000000
##########            Arbitrary:    +999.9990
##########        Ligand Energy:             0.000000

@<TRIPOS>MOLECULE
 ZINC000498978609      none
   49    52     0     0     0



@<TRIPOS>ATOM
      1 O1        -42.2280   -45.9658    -0.7647 O.2        1  LIG1  -0.4800
      2 C1        -42.4836   -46.8226     0.0563 C.2        1  LIG1   0.5100
      3 N1        -43.2909   -46.5387     1.0975 N.am       1  LIG1  -0.5900
      4 C2        -43.8298   -45.2671     1.2312 C.2        1  LIG1   0.2300
      5 N2        -43.6214   -44.2823     0.4134 N.2        1  LIG1  -0.4900
      6 C3        -44.2149   -43.1381     0.6926 C.2        1  LIG1   0.1000
      7 C4        -44.0638   -41.9105    -0.1683 C.3        1  LIG1  -0.0100
      8 C5        -42.8851   -41.1030     0.3108 C.ar       1  LIG1  -0.0800
      9 C6        -43.0611   -40.1287     1.2754 C.ar       1  LIG1  -0.1100
     10 C7        -41.9799   -39.3879     1.7148 C.ar       1  LIG1  -0.1200
     11 C8        -40.7226   -39.6218     1.1900 C.ar       1  LIG1  -0.1200
     12 C9        -40.5465   -40.5968     0.2260 C.ar       1  LIG1  -0.1200
     13 C10       -41.6269   -41.3405    -0.2103 C.ar       1  LIG1  -0.1000
     14 C11       -44.9613   -43.1556     1.8000 C.2        1  LIG1  -0.3100
     15 S1        -44.8710   -44.7725     2.4937 S.3        1  LIG1   0.2500
     16 C12       -41.9089   -48.1927    -0.0909 C.2        1  LIG1   0.5300
     17 O2        -42.6453   -49.1513    -0.1991 O.2        1  LIG1  -0.5000
     18 N3        -40.5722   -48.3650    -0.1033 N.am       1  LIG1  -0.6900
     19 C13       -40.0082   -49.7093    -0.2476 C.3        1  LIG1   0.2800
     20 H1        -40.6753   -50.4351     0.2179 H          1  LIG1   0.1300
     21 C14       -39.8539   -50.0351    -1.7107 C.2        1  LIG1  -0.0300
     22 C15       -39.9251   -51.2632    -2.2550 C.2        1  LIG1  -0.1800
     23 C16       -39.7243   -51.1071    -3.6458 C.2        1  LIG1  -0.2100
     24 C17       -39.5424   -49.7930    -3.8683 C.2        1  LIG1  -0.0300
     25 O3        -39.6277   -49.1479    -2.6933 O.3        1  LIG1  -0.1700
     26 C18       -38.6602   -49.7633     0.4241 C.ar       1  LIG1  -0.1100
     27 C19       -37.5188   -49.4530    -0.2913 C.ar       1  LIG1  -0.1000
     28 C20       -36.2822   -49.5025     0.3246 C.ar       1  LIG1  -0.1100
     29 C21       -36.1872   -49.8619     1.6561 C.ar       1  LIG1  -0.1100
     30 C22       -37.3287   -50.1712     2.3717 C.ar       1  LIG1  -0.1200
     31 C23       -38.5656   -50.1177     1.7568 C.ar       1  LIG1  -0.1000
     32 H2        -43.4951   -47.2233     1.7536 H          1  LIG1   0.4400
     33 H3        -43.9021   -42.2105    -1.2036 H          1  LIG1   0.0900
     34 H4        -44.9690   -41.3067    -0.1022 H          1  LIG1   0.0900
     35 H5        -44.0434   -39.9458     1.6855 H          1  LIG1   0.1200
     36 H6        -42.1175   -38.6261     2.4679 H          1  LIG1   0.1200
     37 H7        -39.8780   -39.0426     1.5328 H          1  LIG1   0.1200
     38 H8        -39.5643   -40.7793    -0.1842 H          1  LIG1   0.1200
     39 H9        -41.4894   -42.1022    -0.9634 H          1  LIG1   0.1200
     40 H10       -45.5246   -42.3249     2.1985 H          1  LIG1   0.1800
     41 H11       -39.9837   -47.5988    -0.0170 H          1  LIG1   0.4200
     42 H12       -40.1012   -52.1905    -1.7302 H          1  LIG1   0.1500
     43 H13       -39.7177   -51.8923    -4.3873 H          1  LIG1   0.1500
     44 H14       -39.3624   -49.3340    -4.8291 H          1  LIG1   0.2000
     45 H15       -37.5930   -49.1722    -1.3315 H          1  LIG1   0.1200
     46 H16       -35.3904   -49.2608    -0.2344 H          1  LIG1   0.1300
     47 H17       -35.2211   -49.9012     2.1372 H          1  LIG1   0.1300
     48 H18       -37.2545   -50.4524     3.4119 H          1  LIG1   0.1300
     49 H19       -39.4576   -50.3594     2.3159 H          1  LIG1   0.1300
@<TRIPOS>BOND
     1    1    2 2
     2    2    3 am
     3    2   16 1
     4    3    4 1
     5    3   32 1
     6    4   15 1
     7    4    5 2
     8    5    6 1
     9    6    7 1
    10    6   14 2
    11    7    8 1
    12    7   33 1
    13    7   34 1
    14    8   13 ar
    15    8    9 ar
    16    9   10 ar
    17    9   35 1
    18   10   11 ar
    19   10   36 1
    20   11   12 ar
    21   11   37 1
    22   12   13 ar
    23   12   38 1
    24   13   39 1
    25   14   15 1
    26   14   40 1
    27   16   17 2
    28   16   18 am
    29   18   19 1
    30   18   41 1
    31   19   20 1
    32   19   21 1
    33   19   26 1
    34   21   25 1
    35   21   22 2
    36   22   23 1
    37   22   42 1
    38   23   24 2
    39   23   43 1
    40   24   25 1
    41   24   44 1
    42   26   31 ar
    43   26   27 ar
    44   27   28 ar
    45   27   45 1
    46   28   29 ar
    47   28   46 1
    48   29   30 ar
    49   29   47 1
    50   30   31 ar
    51   30   48 1
    52   31   49 1
##########                 Name:     ZINC000263545353
##########          Protonation:                 none
##########               SMILES:   CO[C@H](C(=O)N([C@H](C)C(=O)[O-])C1CC1)C1=CN(C)N=C1
##########            Long Name:   NO_LONG_NAME
##########          FlexRecCode: 1
##########               Number:                 5031
##########   Ligand Source File: /bks/ex3/3D/CC/ADRM/CCADRM.xas.db2.gz
##########                 Rank:                    1
##########               Setnum:                   35
##########             Matchnum:                    1
##########                Cloud:                    1
##########        Electrostatic:           -71.403908
##########                 Gist:             0.000000
##########        Van der Waals:           -21.669004
##########  Ligand Polar Desolv:            32.622055
########## Ligand Apolar Desolv:            -4.386469
##########      Internal Energy:             0.000000
##########      Receptor Energy:             0.000000
########## Receptor Desolvation:             0.000000
########## Receptor Hydrophobic:             0.000000
##########         Total Energy:           -64.837326
##########        Ligand Charge:            -1.000000
##########            Arbitrary:    +999.9990
##########        Ligand Energy:             0.000000

@<TRIPOS>MOLECULE
 ZINC000263545353      none
   38    39    -1     0     0



@<TRIPOS>ATOM
      1 C1        -43.9872   -40.1286     2.4661 C.3        1  LIG1   0.0300
      2 O1        -43.2953   -41.3206     2.0887 O.3        1  LIG1  -0.3500
      3 C2        -43.6217   -41.7925     0.7800 C.3        1  LIG1   0.1600
      4 H1        -44.6914   -41.6736     0.6073 H          1  LIG1   0.0800
      5 C3        -43.2531   -43.2492     0.6648 C.2        1  LIG1   0.5000
      6 O2        -42.1024   -43.5978     0.8234 O.2        1  LIG1  -0.5400
      7 N1        -44.2022   -44.1644     0.3854 N.am       1  LIG1  -0.5400
      8 C4        -43.8440   -45.5805     0.2732 C.3        1  LIG1   0.0600
      9 H2        -44.7359   -46.1639     0.0449 H          1  LIG1   0.0800
     10 C5        -43.2449   -46.0613     1.5962 C.3        1  LIG1  -0.1400
     11 C6        -42.8324   -45.7567    -0.8298 C.2        1  LIG1   0.4900
     12 O3        -42.8344   -44.9999    -1.7857 O.co2      1  LIG1  -0.6700
     13 O4        -42.0119   -46.6564    -0.7664 O.co2      1  LIG1  -0.7000
     14 C7        -45.5922   -43.7430     0.1938 C.3        1  LIG1   0.1100
     15 C8        -46.6690   -44.4726     0.9994 C.3        1  LIG1  -0.2000
     16 C9        -46.2838   -43.0370     1.3619 C.3        1  LIG1  -0.2000
     17 C10       -42.8558   -40.9978    -0.2461 C.2        1  LIG1  -0.2500
     18 C11       -43.3936   -40.2474    -1.2355 C.2        1  LIG1   0.1000
     19 N2        -42.3776   -39.6997    -1.9347 N.pl3      1  LIG1  -0.3700
     20 C12       -42.5084   -38.8137    -3.0941 C.3        1  LIG1   0.1000
     21 N3        -41.1759   -40.1275    -1.3559 N.2        1  LIG1  -0.3100
     22 C13       -41.4637   -40.9006    -0.3403 C.2        1  LIG1   0.0800
     23 H3        -43.6846   -39.8358     3.4715 H          1  LIG1   0.0900
     24 H4        -43.7430   -39.3297     1.7661 H          1  LIG1   0.0400
     25 H5        -45.0617   -40.3111     2.4488 H          1  LIG1   0.0400
     26 H6        -42.9784   -47.1150     1.5127 H          1  LIG1   0.0500
     27 H7        -42.3529   -45.4780     1.8247 H          1  LIG1   0.0700
     28 H8        -43.9765   -45.9339     2.3942 H          1  LIG1   0.0600
     29 H9        -45.8505   -43.4188    -0.8142 H          1  LIG1   0.1300
     30 H10       -47.6360   -44.6288     0.5214 H          1  LIG1   0.0800
     31 H11       -46.3434   -45.2662     1.6720 H          1  LIG1   0.1400
     32 H12       -45.7045   -42.8860     2.2728 H          1  LIG1   0.0900
     33 H13       -46.9973   -42.2486     1.1222 H          1  LIG1   0.0900
     34 H14       -44.4471   -40.1114    -1.4306 H          1  LIG1   0.1800
     35 H15       -41.5173   -38.5303    -3.4484 H          1  LIG1   0.0700
     36 H16       -43.0439   -39.3325    -3.8892 H          1  LIG1   0.0900
     37 H17       -43.0612   -37.9191    -2.8071 H          1  LIG1   0.0900
     38 H18       -40.7497   -41.3859     0.3085 H          1  LIG1   0.1800
@<TRIPOS>BOND
     1    1    2 1
     2    1   23 1
     3    1   24 1
     4    1   25 1
     5    2    3 1
     6    3    4 1
     7    3    5 1
     8    3   17 1
     9    5    6 2
    10    5    7 am
    11    7    8 1
    12    7   14 1
    13    8    9 1
    14    8   10 1
    15    8   11 1
    16   10   26 1
    17   10   27 1
    18   10   28 1
    19   11   12 2
    20   11   13 1
    21   14   16 1
    22   14   15 1
    23   14   29 1
    24   15   16 1
    25   15   30 1
    26   15   31 1
    27   16   32 1
    28   16   33 1
    29   17   22 1
    30   17   18 2
    31   18   19 1
    32   18   34 1
    33   19   20 1
    34   19   21 1
    35   20   35 1
    36   20   36 1
    37   20   37 1
    38   21   22 2
    39   22   38 1
##########                 Name:     ZINC001341229266
##########          Protonation:                 none
##########               SMILES:   CC1=CSC([C@@H]2CCN(C3=NN=C(C4=NNC(C5CC5)=C4)N3C)C2)=N1
##########            Long Name:   NO_LONG_NAME
##########          FlexRecCode: 1
##########               Number:                37560
##########   Ligand Source File: /bks/ex4/3D/FF/ADRN/FFADRN.xbro.db2.gz
##########                 Rank:                    1
##########               Setnum:                  156
##########             Matchnum:                    1
##########                Cloud:                    1
##########        Electrostatic:           -39.581757
##########                 Gist:             0.000000
##########        Van der Waals:           -27.731121
##########  Ligand Polar Desolv:             6.674549
########## Ligand Apolar Desolv:            -4.416775
##########      Internal Energy:             0.000000
##########      Receptor Energy:             0.000000
########## Receptor Desolvation:             0.000000
########## Receptor Hydrophobic:             0.000000
##########         Total Energy:           -65.055107
##########        Ligand Charge:             0.000000
##########            Arbitrary:    +999.9990
##########        Ligand Energy:             0.000000

@<TRIPOS>MOLECULE
 ZINC000354201615      none
   39    41    -1     0     0



@<TRIPOS>ATOM
      1 C1        -46.8364   -34.9310     4.5226 C.3        1  LIG1   0.0200
      2 O1        -45.4479   -35.1386     4.2557 O.3        1  LIG1  -0.3000
      3 C2        -45.0910   -36.3490     3.7542 C.ar       1  LIG1   0.1300
      4 C3        -46.0601   -37.3143     3.5190 C.ar       1  LIG1  -0.1800
      5 C4        -45.7029   -38.5444     3.0100 C.ar       1  LIG1  -0.0800
      6 C5        -44.3630   -38.8217     2.7293 C.ar       1  LIG1  -0.1300
      7 C6        -43.9789   -40.1381     2.1840 C.2        1  LIG1   0.5600
      8 O2        -42.8635   -40.5778     2.3860 O.2        1  LIG1  -0.5200
      9 N1        -44.8644   -40.8528     1.4620 N.am       1  LIG1  -0.6600
     10 C7        -44.5015   -42.0964     0.9467 C.ar       1  LIG1   0.1300
     11 C8        -45.2124   -43.2345     1.3146 C.ar       1  LIG1  -0.1200
     12 C9        -44.8563   -44.4642     0.8079 C.ar       1  LIG1  -0.0800
     13 C10       -43.7800   -44.5684    -0.0770 C.ar       1  LIG1   0.0100
     14 C11       -43.3957   -45.8855    -0.6227 C.2        1  LIG1   0.2000
     15 N2        -43.7112   -47.0709    -0.1144 N.2        1  LIG1  -0.6300
     16 C12       -43.1558   -47.9770    -0.9303 C.2        1  LIG1   0.4700
     17 O3        -43.2135   -49.1892    -0.8118 O.2        1  LIG1  -0.6000
     18 O4        -42.5244   -47.3012    -1.9026 O.3        1  LIG1  -0.0600
     19 N3        -42.6643   -46.1080    -1.7324 N.2        1  LIG1  -0.4600
     20 C13       -43.0684   -43.4236    -0.4449 C.ar       1  LIG1  -0.0700
     21 C14       -43.4330   -42.1961     0.0613 C.ar       1  LIG1  -0.1500
     22 C15       -43.3868   -37.8495     2.9657 C.ar       1  LIG1  -0.1100
     23 C16       -43.7521   -36.6175     3.4713 C.ar       1  LIG1   0.0900
     24 O5        -42.8049   -35.6693     3.7025 O.3        1  LIG1  -0.3100
     25 C17       -41.4535   -36.0125     3.3896 C.3        1  LIG1   0.0200
     26 H1        -46.9839   -33.9262     4.9186 H          1  LIG1   0.1000
     27 H2        -47.4048   -35.0446     3.5995 H          1  LIG1   0.0600
     28 H3        -47.1795   -35.6633     5.2532 H          1  LIG1   0.0600
     29 H4        -47.0965   -37.1012     3.7355 H          1  LIG1   0.1400
     30 H5        -46.4591   -39.2940     2.8286 H          1  LIG1   0.1300
     31 H6        -45.7543   -40.5021     1.3009 H          1  LIG1   0.4100
     32 H7        -46.0442   -43.1534     1.9986 H          1  LIG1   0.1400
     33 H8        -45.4079   -45.3474     1.0944 H          1  LIG1   0.1300
     34 H9        -42.2359   -43.5008    -1.1285 H          1  LIG1   0.1400
     35 H10       -42.8837   -41.3107    -0.2229 H          1  LIG1   0.1200
     36 H11       -42.3497   -38.0602     2.7501 H          1  LIG1   0.1500
     37 H12       -40.8019   -35.1700     3.6208 H          1  LIG1   0.1000
     38 H13       -41.1523   -36.8775     3.9805 H          1  LIG1   0.0600
     39 H14       -41.3756   -36.2519     2.3291 H          1  LIG1   0.0600
@<TRIPOS>BOND
     1    1    2 1
     2    1   26 1
     3    1   27 1
     4    1   28 1
     5    2    3 1
     6    3   23 ar
     7    3    4 ar
     8    4    5 ar
     9    4   29 1
    10    5    6 ar
    11    5   30 1
    12    6    7 1
    13    6   22 ar
    14    7    8 2
    15    7    9 am
    16    9   10 1
    17    9   31 1
    18   10   21 ar
    19   10   11 ar
    20   11   12 ar
    21   11   32 1
    22   12   13 ar
    23   12   33 1
    24   13   14 1
    25   13   20 ar
    26   14   19 1
    27   14   15 2
    28   15   16 1
    29   16   17 2
    30   16   18 1
    31   18   19 1
    32   20   21 ar
    33   20   34 1
    34   21   35 1
    35   22   23 ar
    36   22   36 1
    37   23   24 1
    38   24   25 1
    39   25   37 1
    40   25   38 1
    41   25   39 1
##########                 Name:     ZINC000893158956
##########          Protonation:                 none
##########               SMILES:   CC1=C2N=C(N(C)C[C@@H](C)C3=NNN=N3)SC2=CC=C1
##########            Long Name:   NO_LONG_NAME
##########          FlexRecCode: 1
##########               Number:                40752
##########   Ligand Source File: /bks/ex3/3D/CE/ADRM/CEADRM.xac.db2.gz
##########                 Rank:                    1
##########               Setnum:                  168
##########             Matchnum:                    1
##########                Cloud:                    1
##########        Electrostatic:           -64.055420
##########                 Gist:             0.000000
##########        Van der Waals:           -24.548779
##########  Ligand Polar Desolv:            28.067474
########## Ligand Apolar Desolv:            -4.718979
##########      Internal Energy:             0.000000
##########      Receptor Energy:             0.000000
########## Receptor Desolvation:             0.000000
########## Receptor Hydrophobic:             0.000000
##########         Total Energy:           -65.255707
##########        Ligand Charge:            -1.000000
##########            Arbitrary:    +999.9990
##########        Ligand Energy:             0.000000

@<TRIPOS>MOLECULE
 ZINC000893158956      none
   35    37    -1     0     0



@<TRIPOS>ATOM
      1 C1        -40.8435   -41.8381    -0.5311 C.3        1  LIG1  -0.1000
      2 C2        -41.4065   -40.9054     0.5102 C.ar       1  LIG1  -0.0600
      3 C3        -42.5870   -41.2546     1.1988 C.ar       1  LIG1   0.1400
      4 N1        -43.3445   -42.3620     1.0667 N.2        1  LIG1  -0.5600
      5 C4        -44.3922   -42.4676     1.8101 C.2        1  LIG1   0.3900
      6 N2        -45.2654   -43.5360     1.7935 N.pl3      1  LIG1  -0.5700
      7 C5        -46.4268   -43.5470     2.6862 C.3        1  LIG1   0.0900
      8 C6        -45.0309   -44.6595     0.8828 C.3        1  LIG1   0.1300
      9 C7        -43.6749   -45.2952     1.1956 C.3        1  LIG1   0.0100
     10 H1        -42.9490   -44.5126     1.4163 H          1  LIG1   0.0800
     11 C8        -43.8122   -46.2195     2.4072 C.3        1  LIG1  -0.1400
     12 C9        -43.2074   -46.0929     0.0057 C.2        1  LIG1   0.0600
     13 N3        -43.4547   -47.3724    -0.2343 N.2        1  LIG1  -0.3800
     14 N4        -42.8826   -47.6776    -1.3487 N.2        1  LIG1  -0.2000
     15 N5        -42.2870   -46.6351    -1.8136 N.2        1  LIG1  -0.2000
     16 N6        -42.4749   -45.6485    -1.0051 N.2        1  LIG1  -0.3800
     17 S1        -44.5506   -41.0579     2.8483 S.3        1  LIG1   0.0600
     18 C10       -43.0832   -40.3679     2.1591 C.ar       1  LIG1  -0.2000
     19 C11       -42.4207   -39.1723     2.4233 C.ar       1  LIG1  -0.0600
     20 C12       -41.2686   -38.8526     1.7390 C.ar       1  LIG1  -0.1300
     21 C13       -40.7640   -39.7244     0.7862 C.ar       1  LIG1  -0.1000
     22 H2        -41.4817   -42.7179    -0.6139 H          1  LIG1   0.0700
     23 H3        -40.8029   -41.3270    -1.4930 H          1  LIG1   0.0700
     24 H4        -39.8388   -42.1443    -0.2397 H          1  LIG1   0.0600
     25 H5        -46.9953   -44.4641     2.5317 H          1  LIG1   0.0500
     26 H6        -46.0897   -43.4987     3.7216 H          1  LIG1   0.0800
     27 H7        -47.0597   -42.6864     2.4697 H          1  LIG1   0.0800
     28 H8        -45.8186   -45.4019     1.0114 H          1  LIG1   0.1000
     29 H9        -45.0349   -44.3000    -0.1462 H          1  LIG1   0.0800
     30 H10       -42.8462   -46.6724     2.6300 H          1  LIG1   0.0600
     31 H11       -44.1504   -45.6426     3.2679 H          1  LIG1   0.0500
     32 H12       -44.5381   -47.0022     2.1866 H          1  LIG1   0.0500
     33 H13       -42.8116   -38.4932     3.1665 H          1  LIG1   0.1200
     34 H14       -40.7574   -37.9240     1.9462 H          1  LIG1   0.1300
     35 H15       -39.8603   -39.4695     0.2527 H          1  LIG1   0.1300
@<TRIPOS>BOND
     1    1    2 1
     2    1   22 1
     3    1   23 1
     4    1   24 1
     5    2   21 ar
     6    2    3 ar
     7    3   18 ar
     8    3    4 1
     9    4    5 2
    10    5    6 1
    11    5   17 1
    12    6    7 1
    13    6    8 1
    14    7   25 1
    15    7   26 1
    16    7   27 1
    17    8    9 1
    18    8   28 1
    19    8   29 1
    20    9   10 1
    21    9   11 1
    22    9   12 1
    23   11   30 1
    24   11   31 1
    25   11   32 1
    26   12   16 1
    27   12   13 2
    28   13   14 1
    29   14   15 2
    30   15   16 1
    31   17   18 1
    32   18   19 ar
    33   19   20 ar
    34   19   33 1
    35   20   21 ar
    36   20   34 1
    37   21   35 1
##########                 Name:     ZINC000738731152
##########          Protonation:                 none
##########               SMILES:   CC1=CC=CC(NC(=O)C(=O)NCCC2=CC=C(NC(=O)[O-])C=C2)=C1
##########            Long Name:   NO_LONG_NAME
##########          FlexRecCode: 1
##########               Number:                20819
##########   Ligand Source File: /bks/ex5/3D/EE/ADRM/EEADRM.xab.db2.gz
##########                 Rank:                    1
##########               Setnum:                  168
##########             Matchnum:                    1
##########                Cloud:                    1
##########        Electrostatic:           -74.487106
##########                 Gist:             0.000000
##########        Van der Waals:           -23.807295
##########  Ligand Polar Desolv:            37.206188
########## Ligand Apolar Desolv:            -3.728767
##########      Internal Energy:             0.000000
##########      Receptor Energy:             0.000000
########## Receptor Desolvation:             0.000000
########## Receptor Hydrophobic:             0.000000
##########         Total Energy:           -64.816986
##########        Ligand Charge:            -1.000000
##########            Arbitrary:    +999.9990
##########        Ligand Energy:             0.000000

@<TRIPOS>MOLECULE
 ZINC000179314001      none
   42    45     0     0     0



@<TRIPOS>ATOM
      1 C1        -36.0993   -51.5027     1.3283 C.3        1  LIG1  -0.1000
      2 C2        -37.3320   -50.6513     1.1656 C.2        1  LIG1   0.0800
      3 C3        -37.9724   -50.0239     2.1647 C.2        1  LIG1  -0.2000
      4 C4        -39.1078   -49.3157     1.5684 C.ar       1  LIG1  -0.0900
      5 C5        -40.1217   -48.5052     2.0821 C.ar       1  LIG1  -0.0700
      6 C6        -41.0705   -47.9749     1.2278 C.ar       1  LIG1   0.1100
      7 N1        -42.0903   -47.1603     1.7364 N.am       1  LIG1  -0.6500
      8 C7        -42.6225   -46.1885     0.9692 C.2        1  LIG1   0.6100
      9 O1        -42.2173   -46.0186    -0.1647 O.2        1  LIG1  -0.5200
     10 C8        -43.6963   -45.3310     1.5048 C.2        1  LIG1  -0.1000
     11 C9        -44.2343   -45.4139     2.7581 C.2        1  LIG1   0.1100
     12 N2        -45.1812   -44.4542     2.8406 N.pl3      1  LIG1  -0.3100
     13 C10       -45.9921   -44.1721     3.9499 C.ar       1  LIG1   0.1000
     14 C11       -45.8567   -44.9126     5.1159 C.ar       1  LIG1  -0.0700
     15 C12       -46.6560   -44.6336     6.2072 C.ar       1  LIG1  -0.1400
     16 C13       -47.5921   -43.6161     6.1386 C.ar       1  LIG1   0.1300
     17 F1        -48.3731   -43.3444     7.2070 F          1  LIG1  -0.1300
     18 C14       -47.7291   -42.8758     4.9755 C.ar       1  LIG1  -0.1400
     19 C15       -46.9275   -43.1480     3.8847 C.ar       1  LIG1  -0.0200
     20 C16       -47.0765   -42.3425     2.6198 C.3        1  LIG1  -0.1200
     21 N3        -45.1968   -43.7938     1.6038 N.2        1  LIG1  -0.0400
     22 N4        -44.3072   -44.3322     0.8446 N.2        1  LIG1  -0.2000
     23 C17       -41.0154   -48.2472    -0.1381 C.ar       1  LIG1  -0.1200
     24 C18       -40.0197   -49.0458    -0.6539 C.ar       1  LIG1  -0.1100
     25 C19       -39.0558   -49.5882     0.1894 C.ar       1  LIG1   0.0900
     26 N5        -37.9604   -50.3986    -0.0230 N.pl3      1  LIG1  -0.5900
     27 H1        -35.8147   -51.5330     2.3801 H          1  LIG1   0.0800
     28 H2        -36.3075   -52.5141     0.9791 H          1  LIG1   0.0900
     29 H3        -35.2839   -51.0771     0.7434 H          1  LIG1   0.0700
     30 H4        -37.7018   -50.0384     3.2102 H          1  LIG1   0.1500
     31 H5        -40.1650   -48.2940     3.1403 H          1  LIG1   0.1400
     32 H6        -42.4135   -47.2957     2.6410 H          1  LIG1   0.4200
     33 H7        -43.9560   -46.1122     3.5336 H          1  LIG1   0.2100
     34 H8        -45.1269   -45.7070     5.1698 H          1  LIG1   0.1500
     35 H9        -46.5507   -45.2097     7.1147 H          1  LIG1   0.1500
     36 H10       -48.4601   -42.0826     4.9234 H          1  LIG1   0.1500
     37 H11       -47.8532   -41.5902     2.7576 H          1  LIG1   0.0900
     38 H12       -46.1315   -41.8508     2.3887 H          1  LIG1   0.0700
     39 H13       -47.3526   -43.0036     1.7984 H          1  LIG1   0.0800
     40 H14       -41.7611   -47.8284    -0.7976 H          1  LIG1   0.1300
     41 H15       -39.9869   -49.2509    -1.7138 H          1  LIG1   0.1300
     42 H16       -37.6789   -50.7402    -0.8861 H          1  LIG1   0.4100
@<TRIPOS>BOND
     1    1    2 1
     2    1   27 1
     3    1   28 1
     4    1   29 1
     5    2   26 1
     6    2    3 2
     7    3    4 1
     8    3   30 1
     9    4   25 ar
    10    4    5 ar
    11    5    6 ar
    12    5   31 1
    13    6    7 1
    14    6   23 ar
    15    7    8 am
    16    7   32 1
    17    8    9 2
    18    8   10 1
    19   10   22 1
    20   10   11 2
    21   11   12 1
    22   11   33 1
    23   12   13 1
    24   12   21 1
    25   13   19 ar
    26   13   14 ar
    27   14   15 ar
    28   14   34 1
    29   15   16 ar
    30   15   35 1
    31   16   17 1
    32   16   18 ar
    33   18   19 ar
    34   18   36 1
    35   19   20 1
    36   20   37 1
    37   20   38 1
    38   20   39 1
    39   21   22 2
    40   23   24 ar
    41   23   40 1
    42   24   25 ar
    43   24   41 1
    44   25   26 1
    45   26   42 1
##########                 Name:     ZINC000431445179
##########          Protonation:                 none
##########               SMILES:   C[C@H](CN(CC1=CC=CC=C1)C(=O)COC1=C2N=CC=CC2=C(Cl)C=C1)C(=O)[O-]
##########            Long Name:   NO_LONG_NAME
##########          FlexRecCode: 1
##########               Number:                26657
##########   Ligand Source File: /bks/ex1/3D/HI/ADRM/HIADRM.xad.db2.gz
##########                 Rank:                    1
##########               Setnum:                  137
##########             Matchnum:                    1
##########                Cloud:                    1
##########        Electrostatic:           -62.153442
##########                 Gist:             0.000000
##########        Van der Waals:           -27.431042
##########  Ligand Polar Desolv:            33.851418
########## Ligand Apolar Desolv:            -9.527203
##########      Internal Energy:             0.000000
##########      Receptor Energy:             0.000000
########## Receptor Desolvation:             0.000000
########## Receptor Hydrophobic:             0.000000
##########         Total Energy:           -65.260269
##########        Ligand Charge:            -1.000000
##########            Arbitrary:    +999.9990
##########        Ligand Energy:             0.000000

@<TRIPOS>MOLECULE
 ZINC000431445179      none
   49    51    -1     0     0



@<TRIPOS>ATOM
      1 C1        -43.4940   -46.9348     1.5715 C.3        1  LIG1  -0.1200
      2 C2        -43.1570   -45.8862     0.5094 C.3        1  LIG1  -0.1800
      3 H1        -42.2449   -45.3612     0.7936 H          1  LIG1   0.0700
      4 C3        -44.3083   -44.8846     0.3983 C.3        1  LIG1   0.1200
      5 N1        -44.2118   -43.9071     1.4852 N.am       1  LIG1  -0.6000
      6 C4        -44.8825   -44.1632     2.7624 C.3        1  LIG1   0.1600
      7 C5        -45.8813   -43.0679     3.0337 C.ar       1  LIG1  -0.1000
      8 C6        -46.1735   -42.7058     4.3354 C.ar       1  LIG1  -0.1000
      9 C7        -47.0898   -41.7012     4.5843 C.ar       1  LIG1  -0.1200
     10 C8        -47.7136   -41.0584     3.5314 C.ar       1  LIG1  -0.1200
     11 C9        -47.4207   -41.4198     2.2297 C.ar       1  LIG1  -0.1300
     12 C10       -46.5012   -42.4215     1.9807 C.ar       1  LIG1  -0.1000
     13 C11       -43.5062   -42.7723     1.3104 C.2        1  LIG1   0.5300
     14 O1        -43.4264   -41.9631     2.2102 O.2        1  LIG1  -0.5200
     15 C12       -42.8164   -42.5088    -0.0033 C.3        1  LIG1   0.0200
     16 O2        -42.1399   -41.2515     0.0576 O.3        1  LIG1  -0.2600
     17 C13       -42.0115   -40.5630    -1.1068 C.ar       1  LIG1   0.1800
     18 C14       -41.3202   -41.1339    -2.1950 C.ar       1  LIG1   0.1200
     19 N2        -40.7809   -42.3533    -2.1064 N.ar       1  LIG1  -0.4400
     20 C15       -40.1375   -42.8889    -3.1151 C.ar       1  LIG1   0.1200
     21 C16       -39.9833   -42.2169    -4.3260 C.ar       1  LIG1  -0.1600
     22 C17       -40.5103   -40.9668    -4.4835 C.ar       1  LIG1  -0.0700
     23 C18       -41.2008   -40.3957    -3.3982 C.ar       1  LIG1  -0.0600
     24 C19       -41.7702   -39.1142    -3.4862 C.ar       1  LIG1  -0.0700
     25 Cl1       -41.6322   -38.1976    -4.9540 Cl         1  LIG1  -0.0600
     26 C20       -42.4320   -38.5940    -2.4140 C.ar       1  LIG1  -0.0500
     27 C21       -42.5565   -39.3167    -1.2309 C.ar       1  LIG1  -0.2100
     28 C22       -42.9521   -46.5656    -0.8200 C.2        1  LIG1   0.5000
     29 O3        -41.8813   -46.4693    -1.3952 O.co2      1  LIG1  -0.6900
     30 O4        -43.8570   -47.2112    -1.3205 O.co2      1  LIG1  -0.7000
     31 H2        -44.4061   -47.4595     1.2872 H          1  LIG1   0.0600
     32 H3        -42.6739   -47.6482     1.6506 H          1  LIG1   0.0300
     33 H4        -43.6422   -46.4433     2.5331 H          1  LIG1   0.0500
     34 H5        -44.2500   -44.3690    -0.5603 H          1  LIG1   0.0900
     35 H6        -45.2585   -45.4140     0.4689 H          1  LIG1   0.0700
     36 H7        -45.3983   -45.1222     2.7158 H          1  LIG1   0.0900
     37 H8        -44.1429   -44.1869     3.5627 H          1  LIG1   0.0900
     38 H9        -45.6862   -43.2081     5.1579 H          1  LIG1   0.1300
     39 H10       -47.3186   -41.4188     5.6013 H          1  LIG1   0.1200
     40 H11       -48.4301   -40.2740     3.7258 H          1  LIG1   0.1200
     41 H12       -47.9084   -40.9178     1.4071 H          1  LIG1   0.1200
     42 H13       -46.2724   -42.7039     0.9637 H          1  LIG1   0.1300
     43 H14       -42.0939   -43.3010    -0.1997 H          1  LIG1   0.0900
     44 H15       -43.5560   -42.4850    -0.8038 H          1  LIG1   0.1100
     45 H16       -39.7154   -43.8769    -3.0047 H          1  LIG1   0.1600
     46 H17       -39.4472   -42.6841    -5.1388 H          1  LIG1   0.1400
     47 H18       -40.4000   -40.4313    -5.4149 H          1  LIG1   0.1400
     48 H19       -42.8686   -37.6088    -2.4845 H          1  LIG1   0.1400
     49 H20       -43.0861   -38.8824    -0.3959 H          1  LIG1   0.1500
@<TRIPOS>BOND
     1    1    2 1
     2    1   31 1
     3    1   32 1
     4    1   33 1
     5    2    3 1
     6    2    4 1
     7    2   28 1
     8    4    5 1
     9    4   34 1
    10    4   35 1
    11    5    6 1
    12    5   13 am
    13    6    7 1
    14    6   36 1
    15    6   37 1
    16    7   12 ar
    17    7    8 ar
    18    8    9 ar
    19    8   38 1
    20    9   10 ar
    21    9   39 1
    22   10   11 ar
    23   10   40 1
    24   11   12 ar
    25   11   41 1
    26   12   42 1
    27   13   14 2
    28   13   15 1
    29   15   16 1
    30   15   43 1
    31   15   44 1
    32   16   17 1
    33   17   27 ar
    34   17   18 ar
    35   18   23 ar
    36   18   19 ar
    37   19   20 ar
    38   20   21 ar
    39   20   45 1
    40   21   22 ar
    41   21   46 1
    42   22   23 ar
    43   22   47 1
    44   23   24 ar
    45   24   25 1
    46   24   26 ar
    47   26   27 ar
    48   26   48 1
    49   27   49 1
    50   28   29 2
    51   28   30 1
##########                 Name:     ZINC000831945908
##########          Protonation:                 none
##########               SMILES:   COC1=C(S(=O)(=O)NC2=CC=C(Cl)C=C2F)SC(C(=O)[O-])=C1
##########            Long Name:   NO_LONG_NAME
##########          FlexRecCode: 1
##########               Number:                31404
##########   Ligand Source File: /bks/ex4/3D/FG/ADMM/FGADMM.xab.db2.gz
##########                 Rank:                    1
##########               Setnum:                   17
##########             Matchnum:                    1
##########                Cloud:                    1
##########        Electrostatic:           -69.313049
##########                 Gist:             0.000000
##########        Van der Waals:           -23.347088
##########  Ligand Polar Desolv:            31.631298
########## Ligand Apolar Desolv:            -3.289738
##########      Internal Energy:             0.000000
##########      Receptor Energy:             0.000000
########## Receptor Desolvation:             0.000000
########## Receptor Hydrophobic:             0.000000
##########         Total Energy:           -64.318581
##########        Ligand Charge:            -1.000000
##########            Arbitrary:    +999.9990
##########        Ligand Energy:             0.000000

@<TRIPOS>MOLECULE
 ZINC000740622427      none
   35    36    -1     0     0



@<TRIPOS>ATOM
      1 O1        -42.2151   -45.9668    -0.7726 O.co2      1  LIG1  -0.7300
      2 C1        -43.1650   -46.5149    -0.2310 C.2        1  LIG1   0.6600
      3 O2        -43.2650   -47.7336    -0.2587 O.co2      1  LIG1  -0.7300
      4 N1        -44.0984   -45.7763     0.4010 N.am       1  LIG1  -0.7800
      5 C2        -43.9756   -44.3169     0.4392 C.3        1  LIG1   0.1500
      6 C3        -44.6154   -43.7846     1.7230 C.3        1  LIG1  -0.1100
      7 H1        -44.1149   -44.2093     2.5931 H          1  LIG1   0.0900
      8 C4        -46.1165   -44.1390     1.7516 C.3        1  LIG1  -0.1200
      9 C5        -46.7864   -42.9027     2.4011 C.3        1  LIG1  -0.1200
     10 C6        -45.9750   -41.7237     1.8085 C.3        1  LIG1  -0.1300
     11 C7        -44.5244   -42.2491     1.7597 C.3        1  LIG1   0.1500
     12 H2        -43.9807   -41.9274     2.6482 H          1  LIG1   0.1000
     13 N2        -43.8524   -41.7563     0.5548 N.am       1  LIG1  -0.7100
     14 C8        -42.5168   -41.5752     0.5543 C.2        1  LIG1   0.5700
     15 O3        -41.8698   -41.8208     1.5538 O.2        1  LIG1  -0.5300
     16 C9        -41.8389   -41.0783    -0.6612 C.ar       1  LIG1  -0.1700
     17 C10       -40.5028   -41.3949    -0.9074 C.ar       1  LIG1   0.1700
     18 N3        -39.8973   -40.9527    -1.9901 N.ar       1  LIG1  -0.4600
     19 C11       -40.5195   -40.2002    -2.8787 C.ar       1  LIG1   0.2000
     20 Cl1       -39.6615   -39.6519    -4.2847 Cl         1  LIG1   0.0000
     21 C12       -41.8479   -39.8415    -2.7067 C.ar       1  LIG1  -0.0900
     22 Cl2       -42.6493   -38.8512    -3.8861 Cl         1  LIG1  -0.0300
     23 C13       -42.5294   -40.2863    -1.5876 C.ar       1  LIG1   0.0000
     24 H3        -44.8518   -46.2109     0.8305 H          1  LIG1   0.3700
     25 H4        -42.9214   -44.0405     0.4167 H          1  LIG1   0.0500
     26 H5        -44.4825   -43.8870    -0.4247 H          1  LIG1   0.0400
     27 H6        -46.4925   -44.2889     0.7395 H          1  LIG1   0.0700
     28 H7        -46.2871   -45.0281     2.3586 H          1  LIG1   0.0700
     29 H8        -47.8348   -42.8344     2.1111 H          1  LIG1   0.0700
     30 H9        -46.6857   -42.9341     3.4860 H          1  LIG1   0.0700
     31 H10       -46.3282   -41.4835     0.8057 H          1  LIG1   0.0700
     32 H11       -46.0425   -40.8501     2.4571 H          1  LIG1   0.0700
     33 H12       -44.3686   -41.5601    -0.2426 H          1  LIG1   0.4100
     34 H13       -39.9597   -42.0081    -0.2034 H          1  LIG1   0.1800
     35 H14       -43.5645   -40.0225    -1.4283 H          1  LIG1   0.1700
@<TRIPOS>BOND
     1    1    2 2
     2    2    3 1
     3    2    4 am
     4    4    5 1
     5    4   24 1
     6    5    6 1
     7    5   25 1
     8    5   26 1
     9    6    7 1
    10    6   11 1
    11    6    8 1
    12    8    9 1
    13    8   27 1
    14    8   28 1
    15    9   10 1
    16    9   29 1
    17    9   30 1
    18   10   11 1
    19   10   31 1
    20   10   32 1
    21   11   12 1
    22   11   13 1
    23   13   14 am
    24   13   33 1
    25   14   15 2
    26   14   16 1
    27   16   23 ar
    28   16   17 ar
    29   17   18 ar
    30   17   34 1
    31   18   19 ar
    32   19   20 1
    33   19   21 ar
    34   21   22 1
    35   21   23 ar
    36   23   35 1
##########                 Name:     ZINC000910474541
##########          Protonation:                 none
##########               SMILES:   CN(C1=NC2=CC=CC(F)=C2S1)[C@H]1C[C@@H](C(=O)[O-])C1
##########            Long Name:   NO_LONG_NAME
##########          FlexRecCode: 1
##########               Number:                41448
##########   Ligand Source File: /bks/ex2/3D/CF/ADRM/CFADRM.xar.db2.gz
##########                 Rank:                    1
##########               Setnum:                   94
##########             Matchnum:                    1
##########                Cloud:                    1
##########        Electrostatic:           -72.685997
##########                 Gist:             0.000000
##########        Van der Waals:           -19.335733
##########  Ligand Polar Desolv:            33.221550
########## Ligand Apolar Desolv:            -6.243639
##########      Internal Energy:             0.000000
##########      Receptor Energy:             0.000000
########## Receptor Desolvation:             0.000000
########## Receptor Hydrophobic:             0.000000
##########         Total Energy:           -65.043816
##########        Ligand Charge:            -1.000000
##########            Arbitrary:    +999.9990
##########        Ligand Energy:             0.000000

@<TRIPOS>MOLECULE
 ZINC000910474541      none
   31    33    -1     0     0



@<TRIPOS>ATOM
      1 C1        -46.6781   -42.7944     2.7233 C.3        1  LIG1   0.0800
      2 N1        -45.5196   -43.2087     1.9279 N.pl3      1  LIG1  -0.5500
      3 C2        -44.4224   -42.3782     1.8226 C.2        1  LIG1   0.4000
      4 N2        -43.3566   -42.6484     1.1496 N.2        1  LIG1  -0.5600
      5 C3        -42.3667   -41.7333     1.1426 C.ar       1  LIG1   0.1800
      6 C4        -41.1164   -41.7907     0.4906 C.ar       1  LIG1  -0.1100
      7 C5        -40.2263   -40.7519     0.5993 C.ar       1  LIG1  -0.0700
      8 C6        -40.5396   -39.6293     1.3507 C.ar       1  LIG1  -0.1700
      9 C7        -41.7561   -39.5504     1.9967 C.ar       1  LIG1   0.1600
     10 F1        -42.0608   -38.4564     2.7285 F          1  LIG1  -0.1400
     11 C8        -42.6715   -40.5969     1.8964 C.ar       1  LIG1  -0.2500
     12 S1        -44.2826   -40.7984     2.5811 S.3        1  LIG1   0.0500
     13 C9        -45.5260   -44.5044     1.2443 C.3        1  LIG1   0.1200
     14 H1        -46.4475   -45.0637     1.4060 H          1  LIG1   0.1200
     15 C10       -45.1053   -44.4238    -0.2327 C.3        1  LIG1  -0.1200
     16 C11       -44.3311   -45.7322    -0.0019 C.3        1  LIG1  -0.1700
     17 H2        -44.9250   -46.6285    -0.1809 H          1  LIG1   0.0900
     18 C12       -42.9916   -45.7707    -0.6915 C.2        1  LIG1   0.5000
     19 O1        -42.8760   -45.3333    -1.8237 O.co2      1  LIG1  -0.7000
     20 O2        -42.0235   -46.2391    -0.1171 O.co2      1  LIG1  -0.7000
     21 C13       -44.2527   -45.3329     1.4828 C.3        1  LIG1  -0.1200
     22 H3        -47.4397   -43.5734     2.6890 H          1  LIG1   0.0700
     23 H4        -46.3704   -42.6325     3.7562 H          1  LIG1   0.1000
     24 H5        -47.0861   -41.8692     2.3165 H          1  LIG1   0.0700
     25 H6        -40.8579   -42.6586    -0.0978 H          1  LIG1   0.1400
     26 H7        -39.2729   -40.8093     0.0954 H          1  LIG1   0.1400
     27 H8        -39.8319   -38.8175     1.4305 H          1  LIG1   0.1400
     28 H9        -45.9371   -44.5257    -0.9297 H          1  LIG1   0.0600
     29 H10       -44.4647   -43.5713    -0.4582 H          1  LIG1   0.0900
     30 H11       -43.3788   -44.7288     1.7269 H          1  LIG1   0.0800
     31 H12       -44.3954   -46.1686     2.1679 H          1  LIG1   0.0700
@<TRIPOS>BOND
     1    1    2 1
     2    1   22 1
     3    1   23 1
     4    1   24 1
     5    2    3 1
     6    2   13 1
     7    3   12 1
     8    3    4 2
     9    4    5 1
    10    5   11 ar
    11    5    6 ar
    12    6    7 ar
    13    6   25 1
    14    7    8 ar
    15    7   26 1
    16    8    9 ar
    17    8   27 1
    18    9   10 1
    19    9   11 ar
    20   11   12 1
    21   13   14 1
    22   13   21 1
    23   13   15 1
    24   15   16 1
    25   15   28 1
    26   15   29 1
    27   16   17 1
    28   16   18 1
    29   16   21 1
    30   18   19 2
    31   18   20 1
    32   21   30 1
    33   21   31 1
##########                 Name:     ZINC000194924998
##########          Protonation:                 none
##########               SMILES:   C[C@H](C(=O)N[C@@H](CC1=CC=CC=C1)C(=O)[O-])N1CCC2=CC=CC=C2C1
##########            Long Name:   NO_LONG_NAME
##########          FlexRecCode: 1
##########               Number:                27224
##########   Ligand Source File: /bks/ex4/3D/FE/ADRM/FEADRM.xax.db2.gz
##########                 Rank:                    1
##########               Setnum:                  124
##########             Matchnum:                    1
##########                Cloud:                    1
##########        Electrostatic:           -74.659462
##########                 Gist:             0.000000
##########        Van der Waals:           -23.423111
##########  Ligand Polar Desolv:            40.068684
########## Ligand Apolar Desolv:            -7.185261
##########      Internal Energy:             0.000000
##########      Receptor Energy:             0.000000
########## Receptor Desolvation:             0.000000
########## Receptor Hydrophobic:             0.000000
##########         Total Energy:           -65.199150
##########        Ligand Charge:            -1.000000
##########            Arbitrary:    +999.9990
##########        Ligand Energy:             0.000000

@<TRIPOS>MOLECULE
 REAL300007462915      none
   42    44    -1     0     0



@<TRIPOS>ATOM
      1 C1        -44.9148   -45.0067     4.2152 C.3        1  LIG1  -0.1300
      2 C2        -45.6524   -43.6743     4.0691 C.3        1  LIG1  -0.1000
      3 S1        -46.4025   -43.5760     2.4203 S.3        1  LIG1  -0.1500
      4 C3        -45.0127   -43.7021     1.3445 C.ar       1  LIG1  -0.1200
      5 C4        -44.5876   -44.9423     0.9059 C.ar       1  LIG1  -0.0800
      6 C5        -43.4837   -45.0375     0.0512 C.ar       1  LIG1  -0.1300
      7 C6        -43.0269   -46.3556    -0.4194 C.2        1  LIG1   0.5200
      8 O1        -43.6127   -47.3690    -0.0633 O.co2      1  LIG1  -0.6900
      9 O2        -42.0616   -46.4376    -1.1666 O.co2      1  LIG1  -0.6800
     10 C7        -42.8154   -43.8781    -0.3554 C.ar       1  LIG1  -0.0700
     11 C8        -43.2466   -42.6444     0.0801 C.ar       1  LIG1  -0.1200
     12 C9        -44.3390   -42.5476     0.9333 C.ar       1  LIG1   0.1500
     13 N1        -44.7678   -41.2967     1.3758 N.am       1  LIG1  -0.6600
     14 C10       -43.9338   -40.5106     2.0853 C.2        1  LIG1   0.5900
     15 O3        -42.8075   -40.8923     2.3394 O.2        1  LIG1  -0.5200
     16 C11       -44.3870   -39.1885     2.5529 C.2        1  LIG1  -0.2700
     17 C12       -45.6896   -38.8158     2.8204 C.2        1  LIG1   0.1300
     18 N2        -45.6659   -37.5318     3.2209 N.pl3      1  LIG1  -0.3100
     19 C13       -46.7822   -36.7678     3.5903 C.ar       1  LIG1   0.1200
     20 C14       -48.0195   -37.0216     3.0157 C.ar       1  LIG1  -0.1100
     21 C15       -49.1190   -36.2710     3.3859 C.ar       1  LIG1  -0.1000
     22 C16       -48.9857   -35.2591     4.3192 C.ar       1  LIG1  -0.1000
     23 C17       -47.7541   -34.9992     4.8906 C.ar       1  LIG1  -0.1400
     24 C18       -46.6505   -35.7503     4.5292 C.ar       1  LIG1   0.1100
     25 F1        -45.4467   -35.4957     5.0868 F          1  LIG1  -0.1100
     26 N3        -44.3390   -37.0877     3.2071 N.2        1  LIG1  -0.2800
     27 C19       -43.5699   -38.0647     2.8113 C.2        1  LIG1   0.0900
     28 H1        -44.4641   -45.0658     5.2059 H          1  LIG1   0.0600
     29 H2        -45.6197   -45.8282     4.0872 H          1  LIG1   0.0600
     30 H3        -44.1351   -45.0754     3.4566 H          1  LIG1   0.0700
     31 H4        -44.9477   -42.8528     4.1972 H          1  LIG1   0.0900
     32 H5        -46.4323   -43.6057     4.8277 H          1  LIG1   0.0900
     33 H6        -45.1060   -45.8354     1.2223 H          1  LIG1   0.1300
     34 H7        -41.9634   -43.9499    -1.0153 H          1  LIG1   0.1300
     35 H8        -42.7317   -41.7504    -0.2392 H          1  LIG1   0.1400
     36 H9        -45.6662   -40.9922     1.1730 H          1  LIG1   0.4100
     37 H10       -46.5652   -39.4413     2.7293 H          1  LIG1   0.2000
     38 H11       -48.1239   -37.8081     2.2831 H          1  LIG1   0.1400
     39 H12       -50.0827   -36.4716     2.9418 H          1  LIG1   0.1400
     40 H13       -49.8462   -34.6724     4.6050 H          1  LIG1   0.1400
     41 H14       -47.6537   -34.2090     5.6199 H          1  LIG1   0.1500
     42 H15       -42.4965   -38.0219     2.7004 H          1  LIG1   0.2000
@<TRIPOS>BOND
     1    1    2 1
     2    1   28 1
     3    1   29 1
     4    1   30 1
     5    2    3 1
     6    2   31 1
     7    2   32 1
     8    3    4 1
     9    4   12 ar
    10    4    5 ar
    11    5    6 ar
    12    5   33 1
    13    6    7 1
    14    6   10 ar
    15    7    8 2
    16    7    9 1
    17   10   11 ar
    18   10   34 1
    19   11   12 ar
    20   11   35 1
    21   12   13 1
    22   13   14 am
    23   13   36 1
    24   14   15 2
    25   14   16 1
    26   16   27 1
    27   16   17 2
    28   17   18 1
    29   17   37 1
    30   18   19 1
    31   18   26 1
    32   19   24 ar
    33   19   20 ar
    34   20   21 ar
    35   20   38 1
    36   21   22 ar
    37   21   39 1
    38   22   23 ar
    39   22   40 1
    40   23   24 ar
    41   23   41 1
    42   24   25 1
    43   26   27 2
    44   27   42 1
##########                 Name:     REAL300007462910
##########          Protonation:                 none
##########               SMILES:   CCSC1=CC(C(=O)[O-])=CC=C1NC(=O)C1=CC=C(C2=CC=CC=C2F)O1
##########            Long Name:   NO_LONG_NAME
##########          FlexRecCode: 1
##########               Number:                 1988
##########   Ligand Source File: /mnt/nfs/exa/work/stefan/Anions/MWT-300-400/Each-pattern/BUILD/pattern1/All-chec
##########                 Rank:                    1
##########               Setnum:                   29
##########             Matchnum:                    1
##########                Cloud:                    1
##########        Electrostatic:           -65.298737
##########                 Gist:             0.000000
##########        Van der Waals:           -32.568295
##########  Ligand Polar Desolv:            37.439377
########## Ligand Apolar Desolv:            -7.703656
##########      Internal Energy:             0.000000
##########      Receptor Energy:             0.000000
########## Receptor Desolvation:             0.000000
########## Receptor Hydrophobic:             0.000000
##########         Total Energy:           -68.131317
##########        Ligand Charge:            -1.000000
##########            Arbitrary:    +999.9990
##########        Ligand Energy:             0.000000

@<TRIPOS>MOLECULE
 REAL300000241359      none
   40    43    -1     0     0



@<TRIPOS>ATOM
      1 O1        -42.4923   -45.4001    -1.7384 O.co2      1  LIG1  -0.6900
      2 C1        -42.8451   -45.8309    -0.6538 C.2        1  LIG1   0.5000
      3 O2        -42.0158   -46.2548     0.1330 O.co2      1  LIG1  -0.7000
      4 C2        -44.3065   -45.8394    -0.2856 C.3        1  LIG1  -0.1600
      5 C3        -44.6601   -44.5430     0.3965 C.ar       1  LIG1   0.0100
      6 C4        -44.5501   -44.4369     1.7725 C.ar       1  LIG1  -0.1300
      7 C5        -44.8719   -43.2550     2.4045 C.ar       1  LIG1  -0.0800
      8 C6        -45.3106   -42.1596     1.6508 C.ar       1  LIG1  -0.1400
      9 C7        -45.6562   -40.8969     2.3154 C.2        1  LIG1   0.0700
     10 C8        -44.7006   -39.9439     2.5072 C.2        1  LIG1  -0.1900
     11 C9        -43.2433   -40.0728     2.2722 C.2        1  LIG1   0.5600
     12 O3        -42.6725   -41.0667     1.8625 O.2        1  LIG1  -0.4900
     13 N1        -42.6641   -38.9123     2.5858 N.am       1  LIG1  -0.5500
     14 C10       -41.2520   -38.4996     2.5468 C.3        1  LIG1   0.1200
     15 C11       -41.0417   -37.3977     3.5918 C.3        1  LIG1  -0.1300
     16 C12       -41.9840   -36.2089     3.3748 C.3        1  LIG1  -0.0800
     17 C13       -43.4124   -36.6833     3.4193 C.ar       1  LIG1  -0.1100
     18 C14       -44.4836   -35.9243     3.8169 C.ar       1  LIG1  -0.0900
     19 C15       -45.7593   -36.4774     3.8060 C.ar       1  LIG1  -0.1400
     20 C16       -45.9765   -37.7821     3.4009 C.ar       1  LIG1  -0.0700
     21 C17       -44.8977   -38.5619     2.9959 C.ar       1  LIG1  -0.0800
     22 C18       -43.6311   -37.9970     3.0141 C.ar       1  LIG1   0.1300
     23 C19       -45.4237   -42.2771     0.2600 C.ar       1  LIG1  -0.0300
     24 C20       -45.0927   -43.4648    -0.3564 C.ar       1  LIG1  -0.1300
     25 H1        -44.5062   -46.6714     0.3897 H          1  LIG1   0.0700
     26 H2        -44.9078   -45.9511    -1.1877 H          1  LIG1   0.0700
     27 H3        -44.2114   -45.2828     2.3524 H          1  LIG1   0.1200
     28 H4        -44.7862   -43.1741     3.4780 H          1  LIG1   0.1200
     29 H5        -46.6674   -40.7231     2.6523 H          1  LIG1   0.1400
     30 H6        -40.6137   -39.3522     2.7788 H          1  LIG1   0.0900
     31 H7        -41.0084   -38.1169     1.5557 H          1  LIG1   0.0800
     32 H8        -41.2168   -37.8133     4.5842 H          1  LIG1   0.0700
     33 H9        -40.0117   -37.0459     3.5329 H          1  LIG1   0.0900
     34 H10       -41.7820   -35.7565     2.4039 H          1  LIG1   0.0800
     35 H11       -41.8224   -35.4699     4.1597 H          1  LIG1   0.0800
     36 H12       -44.3372   -34.9031     4.1362 H          1  LIG1   0.1300
     37 H13       -46.5990   -35.8752     4.1204 H          1  LIG1   0.1300
     38 H14       -46.9756   -38.1921     3.3985 H          1  LIG1   0.1300
     39 H15       -45.7656   -41.4385    -0.3283 H          1  LIG1   0.1100
     40 H16       -45.1754   -43.5558    -1.4294 H          1  LIG1   0.1200
@<TRIPOS>BOND
     1    1    2 2
     2    2    3 1
     3    2    4 1
     4    4    5 1
     5    4   25 1
     6    4   26 1
     7    5   24 ar
     8    5    6 ar
     9    6    7 ar
    10    6   27 1
    11    7    8 ar
    12    7   28 1
    13    8    9 1
    14    8   23 ar
    15    9   10 2
    16    9   29 1
    17   10   21 1
    18   10   11 1
    19   11   12 2
    20   11   13 am
    21   13   22 1
    22   13   14 1
    23   14   15 1
    24   14   30 1
    25   14   31 1
    26   15   16 1
    27   15   32 1
    28   15   33 1
    29   16   17 1
    30   16   34 1
    31   16   35 1
    32   17   22 ar
    33   17   18 ar
    34   18   19 ar
    35   18   36 1
    36   19   20 ar
    37   19   37 1
    38   20   21 ar
    39   20   38 1
    40   21   22 ar
    41   23   24 ar
    42   23   39 1
    43   24   40 1
##########                 Name:     REAL300003793097
##########          Protonation:                 none
##########               SMILES:   CC1=CC=CC=C1C(C)CC(=O)N[C@H](CC(=O)[O-])C1=CC=CC=C1Cl
##########            Long Name:   NO_LONG_NAME
##########          FlexRecCode: 1
##########               Number:                 2461
##########   Ligand Source File: /mnt/nfs/exa/work/stefan/Anions/MWT-300-400/Each-pattern/BUILD/pattern1/All-chec
##########                 Rank:                    1
##########               Setnum:                   60
##########             Matchnum:                    1
##########                Cloud:                    1
##########        Electrostatic:           -68.305023
##########                 Gist:             0.000000
##########        Van der Waals:           -27.133423
##########  Ligand Polar Desolv:            37.708508
########## Ligand Apolar Desolv:            -9.172347
##########      Internal Energy:             0.000000
##########      Receptor Energy:             0.000000
########## Receptor Desolvation:             0.000000
########## Receptor Hydrophobic:             0.000000
##########         Total Energy:           -66.902283
##########        Ligand Charge:            -1.000000
##########            Arbitrary:    +999.9990
##########        Ligand Energy:             0.000000

@<TRIPOS>MOLECULE
 REAL300003262628      none
   48    51    -1     0     0



@<TRIPOS>ATOM
      1 C1        -49.6434   -33.8841     5.0087 C.3        1  LIG1  -0.1200
      2 C2        -48.5122   -34.7919     4.5999 C.ar       1  LIG1  -0.0800
      3 C3        -47.2063   -34.3435     4.6739 C.ar       1  LIG1  -0.1000
      4 C4        -46.1674   -35.1736     4.3008 C.ar       1  LIG1  -0.1000
      5 C5        -46.4355   -36.4596     3.8507 C.ar       1  LIG1   0.1200
      6 N1        -45.3837   -37.3041     3.4716 N.pl3      1  LIG1  -0.2100
      7 N2        -45.5235   -38.5071     3.0429 N.2        1  LIG1  -0.2500
      8 C6        -44.3442   -39.0319     2.7721 C.2        1  LIG1   0.0200
      9 C7        -44.0852   -40.3919     2.2590 C.2        1  LIG1   0.6000
     10 O1        -43.0493   -40.9617     2.5430 O.2        1  LIG1  -0.5100
     11 N3        -44.9969   -41.0017     1.4759 N.am       1  LIG1  -0.6500
     12 C8        -44.7515   -42.2898     0.9898 C.ar       1  LIG1   0.1100
     13 C9        -44.7109   -42.5211    -0.3791 C.ar       1  LIG1  -0.1400
     14 C10       -44.4626   -43.7933    -0.8559 C.ar       1  LIG1  -0.1000
     15 C11       -44.2658   -44.8384     0.0280 C.ar       1  LIG1  -0.0300
     16 C12       -44.0007   -46.2263    -0.4957 C.3        1  LIG1  -0.1600
     17 C13       -42.5165   -46.4235    -0.6673 C.2        1  LIG1   0.5000
     18 O2        -41.9826   -46.1423    -1.7267 O.co2      1  LIG1  -0.6900
     19 O3        -41.8497   -46.8643     0.2535 O.co2      1  LIG1  -0.7000
     20 C14       -44.3112   -44.6125     1.3916 C.ar       1  LIG1  -0.1000
     21 C15       -44.5534   -43.3417     1.8749 C.ar       1  LIG1  -0.1100
     22 C16       -43.3748   -38.0449     3.0659 C.2        1  LIG1  -0.1500
     23 C17       -44.0672   -36.9685     3.5044 C.2        1  LIG1  -0.0200
     24 C18       -43.1150   -35.8457     3.8499 C.3        1  LIG1  -0.0400
     25 C19       -41.7831   -36.2205     3.1628 C.3        1  LIG1  -0.1100
     26 C20       -41.8926   -37.7589     3.0692 C.3        1  LIG1  -0.0500
     27 C21       -47.7482   -36.9048     3.7718 C.ar       1  LIG1  -0.1100
     28 C22       -48.7825   -36.0722     4.1522 C.ar       1  LIG1  -0.1000
     29 H1        -49.2403   -32.9239     5.3308 H          1  LIG1   0.0800
     30 H2        -50.3116   -33.7316     4.1612 H          1  LIG1   0.0700
     31 H3        -50.1963   -34.3397     5.8301 H          1  LIG1   0.0700
     32 H4        -46.9985   -33.3432     5.0240 H          1  LIG1   0.1400
     33 H5        -45.1475   -34.8229     4.3594 H          1  LIG1   0.1400
     34 H6        -45.8233   -40.5471     1.2494 H          1  LIG1   0.4100
     35 H7        -44.8693   -41.7062    -1.0700 H          1  LIG1   0.1200
     36 H8        -44.4265   -43.9729    -1.9203 H          1  LIG1   0.1200
     37 H9        -44.3856   -46.9612     0.2113 H          1  LIG1   0.0700
     38 H10       -44.4976   -46.3526    -1.4577 H          1  LIG1   0.0700
     39 H11       -44.1567   -45.4308     2.0793 H          1  LIG1   0.1200
     40 H12       -44.5891   -43.1660     2.9399 H          1  LIG1   0.1300
     41 H13       -42.9795   -35.7830     4.9296 H          1  LIG1   0.0900
     42 H14       -43.4888   -34.8988     3.4602 H          1  LIG1   0.0800
     43 H15       -41.7175   -35.7738     2.1707 H          1  LIG1   0.0800
     44 H16       -40.9318   -35.9268     3.7770 H          1  LIG1   0.0900
     45 H17       -41.4357   -38.1159     2.1464 H          1  LIG1   0.0800
     46 H18       -41.4172   -38.2258     3.9319 H          1  LIG1   0.0800
     47 H19       -47.9602   -37.9029     3.4175 H          1  LIG1   0.1300
     48 H20       -49.8034   -36.4196     4.0955 H          1  LIG1   0.1300
@<TRIPOS>BOND
     1    1    2 1
     2    1   29 1
     3    1   30 1
     4    1   31 1
     5    2   28 ar
     6    2    3 ar
     7    3    4 ar
     8    3   32 1
     9    4    5 ar
    10    4   33 1
    11    5    6 1
    12    5   27 ar
    13    6   23 1
    14    6    7 1
    15    7    8 2
    16    8    9 1
    17    8   22 1
    18    9   10 2
    19    9   11 am
    20   11   12 1
    21   11   34 1
    22   12   21 ar
    23   12   13 ar
    24   13   14 ar
    25   13   35 1
    26   14   15 ar
    27   14   36 1
    28   15   16 1
    29   15   20 ar
    30   16   17 1
    31   16   37 1
    32   16   38 1
    33   17   18 2
    34   17   19 1
    35   20   21 ar
    36   20   39 1
    37   21   40 1
    38   22   26 1
    39   22   23 2
    40   23   24 1
    41   24   25 1
    42   24   41 1
    43   24   42 1
    44   25   26 1
    45   25   43 1
    46   25   44 1
    47   26   45 1
    48   26   46 1
    49   27   28 ar
    50   27   47 1
    51   28   48 1
##########                 Name:     REAL300000929308
##########          Protonation:                 none
##########               SMILES:   O=C([O-])CC(C(=O)NCC1=CC=CC(CO)=C1)C1=CC=C(Cl)C=C1Cl
##########            Long Name:   NO_LONG_NAME
##########          FlexRecCode: 1
##########               Number:                 7560
##########   Ligand Source File: /mnt/nfs/exa/work/stefan/Anions/MWT-300-400/Each-pattern/BUILD/pattern1/All-chec
##########                 Rank:                    1
##########               Setnum:                  139
##########             Matchnum:                    1
##########                Cloud:                    1
##########        Electrostatic:           -67.138016
##########                 Gist:             0.000000
##########        Van der Waals:           -25.075056
##########  Ligand Polar Desolv:            30.993170
########## Ligand Apolar Desolv:            -5.186809
##########      Internal Energy:             0.000000
##########      Receptor Energy:             0.000000
########## Receptor Desolvation:             0.000000
########## Receptor Hydrophobic:             0.000000
##########         Total Energy:           -66.406715
##########        Ligand Charge:            -1.000000
##########            Arbitrary:    +999.9990
##########        Ligand Energy:             0.000000

@<TRIPOS>MOLECULE
 REAL300005006680      none
   49    52    -1     0     0



@<TRIPOS>ATOM
      1 C1        -47.0696   -36.4503     4.1490 C.3        1  LIG1  -0.1200
      2 C2        -45.5826   -36.6915     4.1933 C.ar       1  LIG1  -0.0800
      3 C3        -44.8258   -36.1574     5.2196 C.ar       1  LIG1  -0.1200
      4 C4        -43.4620   -36.3782     5.2598 C.ar       1  LIG1  -0.1100
      5 C5        -42.8546   -37.1330     4.2741 C.ar       1  LIG1  -0.1200
      6 C6        -43.6113   -37.6672     3.2476 C.ar       1  LIG1  -0.0400
      7 C7        -42.9489   -38.4899     2.1727 C.3        1  LIG1  -0.1200
      8 C8        -43.3683   -39.9360     2.1098 C.2        1  LIG1   0.5600
      9 O1        -42.5442   -40.8134     2.2582 O.2        1  LIG1  -0.5300
     10 N1        -44.6592   -40.2544     1.8889 N.am       1  LIG1  -0.7200
     11 C9        -45.0668   -41.6602     1.8280 C.3        1  LIG1   0.1400
     12 C10       -46.5029   -41.7874     2.3263 C.3        1  LIG1  -0.1300
     13 C11       -46.8483   -43.2587     2.5741 C.3        1  LIG1  -0.0800
     14 S1        -46.7972   -44.1422     0.9845 S.3        1  LIG1  -0.2300
     15 C12       -45.1671   -43.6669     0.3439 C.3        1  LIG1  -0.0500
     16 C13       -44.8316   -44.3050    -1.0079 C.3        1  LIG1  -0.0800
     17 C14       -44.2271   -45.4750    -0.2116 C.3        1  LIG1  -0.1700
     18 C15       -42.9436   -46.0042    -0.7977 C.2        1  LIG1   0.5000
     19 O2        -42.8313   -46.1305    -2.0052 O.co2      1  LIG1  -0.7000
     20 O3        -42.0175   -46.3062    -0.0646 O.co2      1  LIG1  -0.7000
     21 C16       -44.0150   -44.4802     0.9430 C.3        1  LIG1  -0.0900
     22 C17       -44.9460   -42.1566     0.3882 C.3        1  LIG1  -0.1100
     23 C18       -42.6179   -37.7923     0.8518 C.3        1  LIG1  -0.1300
     24 C19       -41.4959   -38.1599     1.8250 C.3        1  LIG1  -0.1600
     25 C20       -44.9743   -37.4422     3.2044 C.ar       1  LIG1  -0.1000
     26 H1        -47.3648   -35.8428     5.0045 H          1  LIG1   0.0700
     27 H2        -47.3257   -35.9283     3.2271 H          1  LIG1   0.0700
     28 H3        -47.5938   -37.4054     4.1834 H          1  LIG1   0.0700
     29 H4        -45.3001   -35.5674     5.9899 H          1  LIG1   0.1200
     30 H5        -42.8709   -35.9606     6.0613 H          1  LIG1   0.1200
     31 H6        -41.7889   -37.3052     4.3054 H          1  LIG1   0.1200
     32 H7        -45.3183   -39.5527     1.7703 H          1  LIG1   0.4000
     33 H8        -44.4116   -42.2516     2.4675 H          1  LIG1   0.0900
     34 H9        -46.6133   -41.2290     3.2559 H          1  LIG1   0.0800
     35 H10       -47.1824   -41.3803     1.5776 H          1  LIG1   0.0700
     36 H11       -46.1212   -43.6950     3.2588 H          1  LIG1   0.0800
     37 H12       -47.8468   -43.3326     3.0048 H          1  LIG1   0.1000
     38 H13       -44.0973   -43.7440    -1.5859 H          1  LIG1   0.0900
     39 H14       -45.7102   -44.5810    -1.5911 H          1  LIG1   0.0600
     40 H15       -44.9441   -46.2632     0.0178 H          1  LIG1   0.0900
     41 H16       -44.2384   -44.8966     1.9254 H          1  LIG1   0.0600
     42 H17       -43.0534   -43.9679     0.9076 H          1  LIG1   0.0800
     43 H18       -43.9517   -41.9244     0.0069 H          1  LIG1   0.0800
     44 H19       -45.6953   -41.6621    -0.2299 H          1  LIG1   0.0800
     45 H20       -42.7034   -38.3793    -0.0626 H          1  LIG1   0.1000
     46 H21       -42.8792   -36.7381     0.7601 H          1  LIG1   0.1000
     47 H22       -41.0193   -37.3476     2.3735 H          1  LIG1   0.1100
     48 H23       -40.8435   -38.9888     1.5508 H          1  LIG1   0.1000
     49 H24       -45.5647   -37.8558     2.4002 H          1  LIG1   0.1200
@<TRIPOS>BOND
     1    1    2 1
     2    1   26 1
     3    1   27 1
     4    1   28 1
     5    2   25 ar
     6    2    3 ar
     7    3    4 ar
     8    3   29 1
     9    4    5 ar
    10    4   30 1
    11    5    6 ar
    12    5   31 1
    13    6    7 1
    14    6   25 ar
    15    7   24 1
    16    7    8 1
    17    7   23 1
    18    8    9 2
    19    8   10 am
    20   10   11 1
    21   10   32 1
    22   11   22 1
    23   11   12 1
    24   11   33 1
    25   12   13 1
    26   12   34 1
    27   12   35 1
    28   13   14 1
    29   13   36 1
    30   13   37 1
    31   14   15 1
    32   15   21 1
    33   15   16 1
    34   15   22 1
    35   16   17 1
    36   16   38 1
    37   16   39 1
    38   17   18 1
    39   17   21 1
    40   17   40 1
    41   18   19 2
    42   18   20 1
    43   21   41 1
    44   21   42 1
    45   22   43 1
    46   22   44 1
    47   23   24 1
    48   23   45 1
    49   23   46 1
    50   24   47 1
    51   24   48 1
    52   25   49 1
##########                 Name:     REAL300019811543
##########          Protonation:                 none
##########               SMILES:   CC1=CN(C2=CC=CC=C2Cl)N=C1C(=O)NC1=CC(C2=NN=N[N-]2)=CC=C1F
##########            Long Name:   NO_LONG_NAME
##########          FlexRecCode: 1
##########               Number:                15219
##########   Ligand Source File: /mnt/nfs/exa/work/stefan/Anions/MWT-300-400/Each-pattern/BUILD/pattern2/All-chec
##########                 Rank:                    1
##########               Setnum:                   14
##########             Matchnum:                    1
##########                Cloud:                    1
##########        Electrostatic:           -65.217270
##########                 Gist:             0.000000
##########        Van der Waals:           -32.974525
##########  Ligand Polar Desolv:            36.056770
########## Ligand Apolar Desolv:            -5.206050
##########      Internal Energy:             0.000000
##########      Receptor Energy:             0.000000
########## Receptor Desolvation:             0.000000
########## Receptor Hydrophobic:             0.000000
##########         Total Energy:           -67.341080
##########        Ligand Charge:            -1.000000
##########            Arbitrary:    +999.9990
##########        Ligand Energy:             0.000000

@<TRIPOS>MOLECULE
 REAL300001325238      none
   48    50    -1     0     0



@<TRIPOS>ATOM
      1 C1        -41.6750   -38.6477    -4.8088 C.3        1  LIG1   0.0300
      2 O1        -41.9396   -38.9033    -3.4278 O.3        1  LIG1  -0.2800
      3 C2        -41.2337   -39.9043    -2.8394 C.ar       1  LIG1   0.1500
      4 C3        -40.3058   -40.6260    -3.5757 C.ar       1  LIG1  -0.2200
      5 C4        -39.5897   -41.6437    -2.9752 C.ar       1  LIG1  -0.0800
      6 C5        -39.7936   -41.9393    -1.6402 C.ar       1  LIG1  -0.1700
      7 C6        -40.7218   -41.2247    -0.9052 C.ar       1  LIG1  -0.0700
      8 C7        -41.4402   -40.2065    -1.5009 C.ar       1  LIG1  -0.1500
      9 C8        -42.4471   -39.4240    -0.6979 C.3        1  LIG1   0.1700
     10 N1        -42.4775   -39.9324     0.6758 N.am       1  LIG1  -0.6100
     11 C9        -41.5886   -39.3583     1.6890 C.3        1  LIG1   0.1800
     12 C10       -42.2802   -38.2048     2.3686 C.2        1  LIG1  -0.1900
     13 C11       -43.0365   -38.2986     3.4634 C.2        1  LIG1  -0.1300
     14 C12       -43.5698   -37.1012     3.9082 C.2        1  LIG1  -0.1300
     15 C13       -43.2468   -36.0349     3.1746 C.2        1  LIG1  -0.2100
     16 S1        -42.2078   -36.5276     1.8437 S.3        1  LIG1   0.1000
     17 C14       -43.3230   -40.9281     1.0073 C.2        1  LIG1   0.5100
     18 O2        -43.3480   -41.3489     2.1444 O.2        1  LIG1  -0.4900
     19 C15       -44.2373   -41.5186    -0.0349 C.3        1  LIG1  -0.1000
     20 C16       -44.5042   -42.9652     0.2925 C.ar       1  LIG1  -0.0900
     21 C17       -45.5792   -43.3041     1.0950 C.ar       1  LIG1  -0.1100
     22 C18       -45.8353   -44.6306     1.3964 C.ar       1  LIG1  -0.1400
     23 C19       -45.0128   -45.6234     0.9073 C.ar       1  LIG1  -0.0800
     24 C20       -43.9220   -45.2882     0.1009 C.ar       1  LIG1  -0.1300
     25 C21       -43.0371   -46.3447    -0.4258 C.2        1  LIG1   0.5200
     26 O3        -43.2575   -47.5172    -0.1571 O.co2      1  LIG1  -0.6900
     27 O4        -42.0834   -46.0479    -1.1314 O.co2      1  LIG1  -0.6900
     28 C22       -43.6730   -43.9477    -0.2038 C.ar       1  LIG1  -0.0700
     29 H1        -42.3038   -37.8267    -5.1533 H          1  LIG1   0.0600
     30 H2        -40.6260   -38.3792    -4.9340 H          1  LIG1   0.1000
     31 H3        -41.8933   -39.5421    -5.3922 H          1  LIG1   0.0500
     32 H4        -40.1435   -40.3929    -4.6177 H          1  LIG1   0.1300
     33 H5        -38.8671   -42.2058    -3.5480 H          1  LIG1   0.1200
     34 H6        -39.2298   -42.7324    -1.1715 H          1  LIG1   0.1200
     35 H7        -40.8819   -41.4601     0.1365 H          1  LIG1   0.1200
     36 H8        -42.1658   -38.3710    -0.6894 H          1  LIG1   0.0800
     37 H9        -43.4341   -39.5329    -1.1474 H          1  LIG1   0.1000
     38 H10       -41.3407   -40.1199     2.4284 H          1  LIG1   0.1000
     39 H11       -40.6747   -39.0041     1.2120 H          1  LIG1   0.0900
     40 H12       -43.2189   -39.2377     3.9646 H          1  LIG1   0.1400
     41 H13       -44.1994   -37.0352     4.7831 H          1  LIG1   0.1400
     42 H14       -43.5698   -35.0233     3.3708 H          1  LIG1   0.1600
     43 H15       -45.1786   -40.9689    -0.0460 H          1  LIG1   0.1000
     44 H16       -43.7645   -41.4491    -1.0146 H          1  LIG1   0.0900
     45 H17       -46.2239   -42.5304     1.4848 H          1  LIG1   0.1100
     46 H18       -46.6788   -44.8882     2.0197 H          1  LIG1   0.1100
     47 H19       -45.2115   -46.6577     1.1465 H          1  LIG1   0.1200
     48 H20       -42.8319   -43.6814    -0.8267 H          1  LIG1   0.1200
@<TRIPOS>BOND
     1    1    2 1
     2    1   29 1
     3    1   30 1
     4    1   31 1
     5    2    3 1
     6    3    8 ar
     7    3    4 ar
     8    4    5 ar
     9    4   32 1
    10    5    6 ar
    11    5   33 1
    12    6    7 ar
    13    6   34 1
    14    7    8 ar
    15    7   35 1
    16    8    9 1
    17    9   10 1
    18    9   36 1
    19    9   37 1
    20   10   11 1
    21   10   17 am
    22   11   12 1
    23   11   38 1
    24   11   39 1
    25   12   16 1
    26   12   13 2
    27   13   14 1
    28   13   40 1
    29   14   15 2
    30   14   41 1
    31   15   16 1
    32   15   42 1
    33   17   18 2
    34   17   19 1
    35   19   20 1
    36   19   43 1
    37   19   44 1
    38   20   28 ar
    39   20   21 ar
    40   21   22 ar
    41   21   45 1
    42   22   23 ar
    43   22   46 1
    44   23   24 ar
    45   23   47 1
    46   24   25 1
    47   24   28 ar
    48   25   26 2
    49   25   27 1
    50   28   48 1
##########                 Name:     REAL300015797706
##########          Protonation:                 none
##########               SMILES:   O=C([O-])CC1=CC=C(NC(=O)C2=CC=CC(C3=C4N=CC=CN4N=C3)=C2)C=C1
##########            Long Name:   NO_LONG_NAME
##########          FlexRecCode: 1
##########               Number:                 4153
##########   Ligand Source File: /mnt/nfs/exa/work/stefan/Anions/MWT-300-400/Each-pattern/BUILD/pattern1/All-chec
##########                 Rank:                    1
##########               Setnum:                  124
##########             Matchnum:                    1
##########                Cloud:                    1
##########        Electrostatic:           -69.256325
##########                 Gist:             0.000000
##########        Van der Waals:           -33.878834
##########  Ligand Polar Desolv:            40.691017
########## Ligand Apolar Desolv:            -7.268398
##########      Internal Energy:             0.000000
##########      Receptor Energy:             0.000000
########## Receptor Desolvation:             0.000000
########## Receptor Hydrophobic:             0.000000
##########         Total Energy:           -69.712540
##########        Ligand Charge:            -1.000000
##########            Arbitrary:    +999.9990
##########        Ligand Energy:             0.000000

@<TRIPOS>MOLECULE
 REAL300011303194      none
   50    54    -1     0     0



@<TRIPOS>ATOM
      1 O1        -43.2304   -47.9854    -0.0847 O.co2      1  LIG1  -0.7100
      2 C1        -43.0826   -46.7906     0.1083 C.2        1  LIG1   0.4900
      3 O2        -42.0165   -46.2584    -0.1503 O.co2      1  LIG1  -0.7000
      4 C2        -44.2178   -45.9714     0.6665 C.3        1  LIG1  -0.1500
      5 C3        -43.7879   -45.3436     1.9936 C.3        1  LIG1  -0.0900
      6 C4        -44.9559   -44.5472     2.5824 C.3        1  LIG1  -0.1000
      7 C5        -45.3953   -43.4826     1.5795 C.3        1  LIG1  -0.0700
      8 C6        -46.4397   -42.5080     2.1382 C.3        1  LIG1  -0.1400
      9 C7        -45.2595   -41.6428     2.6129 C.3        1  LIG1   0.1300
     10 N1        -45.4740   -40.2055     2.4277 N.pl3      1  LIG1  -0.6800
     11 C8        -44.4956   -39.3054     2.8098 C.ar       1  LIG1   0.5000
     12 C9        -44.8066   -37.9896     3.2490 C.ar       1  LIG1  -0.2400
     13 C10       -43.7621   -37.1294     3.6146 C.ar       1  LIG1   0.1100
     14 N2        -42.4857   -37.5357     3.5665 N.ar       1  LIG1  -0.5200
     15 C11       -42.2556   -38.7710     3.1568 C.ar       1  LIG1   0.3500
     16 N3        -43.1994   -39.6166     2.7961 N.ar       1  LIG1  -0.5900
     17 S1        -44.4149   -35.5857     4.0991 S.3        1  LIG1   0.1600
     18 C12       -46.0673   -36.1077     3.8003 C.2        1  LIG1  -0.1900
     19 C13       -46.1104   -37.3710     3.3614 C.2        1  LIG1  -0.0600
     20 C14       -47.4091   -38.0903     3.0192 C.3        1  LIG1  -0.0700
     21 C15       -48.5774   -37.3349     3.6539 C.3        1  LIG1  -0.1200
     22 C16       -48.4787   -35.8533     3.2777 C.3        1  LIG1  -0.1200
     23 C17       -47.2895   -35.2332     4.0145 C.3        1  LIG1  -0.0400
     24 C18       -44.4320   -42.2919     1.4900 C.3        1  LIG1  -0.1400
     25 C19       -45.7707   -44.0656     0.2188 C.3        1  LIG1  -0.1000
     26 C20       -44.5884   -44.8705    -0.3288 C.3        1  LIG1  -0.0900
     27 H1        -45.0818   -46.6149     0.8328 H          1  LIG1   0.0600
     28 H2        -42.9425   -44.6768     1.8232 H          1  LIG1   0.0700
     29 H3        -43.4963   -46.1298     2.6900 H          1  LIG1   0.0500
     30 H4        -44.6389   -44.0667     3.5081 H          1  LIG1   0.0600
     31 H5        -45.7889   -45.2195     2.7881 H          1  LIG1   0.0600
     32 H6        -47.0328   -42.9231     2.9532 H          1  LIG1   0.0700
     33 H7        -47.0489   -42.0323     1.3694 H          1  LIG1   0.0800
     34 H8        -44.9101   -41.8929     3.6147 H          1  LIG1   0.1200
     35 H9        -46.3020   -39.8850     2.0371 H          1  LIG1   0.4100
     36 H10       -41.2303   -39.1079     3.1146 H          1  LIG1   0.2000
     37 H11       -47.5370   -38.1175     1.9371 H          1  LIG1   0.0800
     38 H12       -47.3768   -39.1074     3.4101 H          1  LIG1   0.0800
     39 H13       -49.5186   -37.7428     3.2854 H          1  LIG1   0.0700
     40 H14       -48.5330   -37.4394     4.7381 H          1  LIG1   0.0700
     41 H15       -48.3311   -35.7590     2.2018 H          1  LIG1   0.0700
     42 H16       -49.3959   -35.3409     3.5683 H          1  LIG1   0.0700
     43 H17       -47.0972   -34.2347     3.6219 H          1  LIG1   0.0800
     44 H18       -47.5120   -35.1717     5.0798 H          1  LIG1   0.0800
     45 H19       -44.4860   -41.7564     0.5421 H          1  LIG1   0.0800
     46 H20       -43.4104   -42.5331     1.7836 H          1  LIG1   0.0800
     47 H21       -46.6361   -44.7191     0.3290 H          1  LIG1   0.0600
     48 H22       -46.0104   -43.2561    -0.4706 H          1  LIG1   0.0500
     49 H23       -43.7344   -44.2090    -0.4736 H          1  LIG1   0.0600
     50 H24       -44.8654   -45.3206    -1.2821 H          1  LIG1   0.0500
@<TRIPOS>BOND
     1    1    2 2
     2    2    3 1
     3    2    4 1
     4    4   26 1
     5    4    5 1
     6    4   27 1
     7    5    6 1
     8    5   28 1
     9    5   29 1
    10    6    7 1
    11    6   30 1
    12    6   31 1
    13    7   24 1
    14    7    8 1
    15    7   25 1
    16    8    9 1
    17    8   32 1
    18    8   33 1
    19    9   10 1
    20    9   24 1
    21    9   34 1
    22   10   11 1
    23   10   35 1
    24   11   16 ar
    25   11   12 ar
    26   12   19 1
    27   12   13 ar
    28   13   14 ar
    29   13   17 1
    30   14   15 ar
    31   15   16 ar
    32   15   36 1
    33   17   18 1
    34   18   23 1
    35   18   19 2
    36   19   20 1
    37   20   21 1
    38   20   37 1
    39   20   38 1
    40   21   22 1
    41   21   39 1
    42   21   40 1
    43   22   23 1
    44   22   41 1
    45   22   42 1
    46   23   43 1
    47   23   44 1
    48   24   45 1
    49   24   46 1
    50   25   26 1
    51   25   47 1
    52   25   48 1
    53   26   49 1
    54   26   50 1
##########                 Name:     REAL300003793588
##########          Protonation:                 none
##########               SMILES:   CCN1C=C(CC(=O)N[C@H](CC(=O)[O-])C2=CC=CC=C2Cl)C2=CC=CC=C21
##########            Long Name:   NO_LONG_NAME
##########          FlexRecCode: 1
##########               Number:                 3472
##########   Ligand Source File: /mnt/nfs/exa/work/stefan/Anions/MWT-300-400/Each-pattern/BUILD/pattern1/All-chec
##########                 Rank:                    1
##########               Setnum:                   72
##########             Matchnum:                    1
##########                Cloud:                    1
##########        Electrostatic:           -66.313057
##########                 Gist:             0.000000
##########        Van der Waals:           -26.299990
##########  Ligand Polar Desolv:            37.886570
########## Ligand Apolar Desolv:            -9.725823
##########      Internal Energy:             0.000000
##########      Receptor Energy:             0.000000
########## Receptor Desolvation:             0.000000
########## Receptor Hydrophobic:             0.000000
##########         Total Energy:           -64.452301
##########        Ligand Charge:            -1.000000
##########            Arbitrary:    +999.9990
##########        Ligand Energy:             0.000000

@<TRIPOS>MOLECULE
 REAL300015794768      none
   36    39    -1     0     0



@<TRIPOS>ATOM
      1 O1        -42.5710   -45.9573    -1.5451 O.co2      1  LIG1  -0.7000
      2 C1        -42.6850   -46.5430    -0.4763 C.2        1  LIG1   0.5400
      3 O2        -42.2808   -47.6926    -0.3621 O.co2      1  LIG1  -0.6600
      4 C2        -43.3062   -45.8670     0.6677 C.2        1  LIG1  -0.3000
      5 C3        -43.4429   -46.5177     1.8796 C.2        1  LIG1   0.1500
      6 N1        -44.0035   -45.9323     2.9437 N.pl3      1  LIG1  -0.6000
      7 C4        -44.4893   -44.6425     2.9191 C.ar       1  LIG1   0.2200
      8 C5        -45.0654   -44.0843     4.0601 C.ar       1  LIG1  -0.1000
      9 Cl1       -45.1722   -45.0162     5.5208 Cl         1  LIG1  -0.0600
     10 C6        -45.5496   -42.7965     4.0303 C.ar       1  LIG1  -0.0300
     11 C7        -45.4714   -42.0339     2.8607 C.ar       1  LIG1  -0.1000
     12 C8        -45.9978   -40.6474     2.8432 C.ar       1  LIG1  -0.0600
     13 C9        -45.1636   -39.5920     3.1704 C.ar       1  LIG1   0.1100
     14 F1        -43.8747   -39.8205     3.5051 F          1  LIG1  -0.1300
     15 C10       -45.6694   -38.2805     3.1511 C.ar       1  LIG1  -0.0800
     16 C11       -44.8551   -37.1825     3.4774 C.ar       1  LIG1  -0.1000
     17 C12       -45.3764   -35.9252     3.4492 C.ar       1  LIG1  -0.1200
     18 C13       -46.7081   -35.7091     3.1012 C.ar       1  LIG1  -0.1100
     19 C14       -47.5262   -36.7488     2.7791 C.ar       1  LIG1  -0.1100
     20 C15       -47.0246   -38.0609     2.7968 C.ar       1  LIG1  -0.0300
     21 C16       -47.8446   -39.1560     2.4698 C.ar       1  LIG1  -0.1100
     22 C17       -47.3364   -40.4153     2.4889 C.ar       1  LIG1  -0.0800
     23 C18       -44.9005   -42.5746     1.7153 C.ar       1  LIG1   0.0000
     24 C19       -44.4093   -43.8775     1.7423 C.ar       1  LIG1  -0.1800
     25 C20       -43.7970   -44.4842     0.5445 C.2        1  LIG1   0.4200
     26 O3        -43.7061   -43.8689    -0.5030 O.2        1  LIG1  -0.4400
     27 H1        -43.0839   -47.5322     1.9708 H          1  LIG1   0.1700
     28 H2        -44.0715   -46.4377     3.7688 H          1  LIG1   0.4100
     29 H3        -45.9939   -42.3711     4.9179 H          1  LIG1   0.1400
     30 H4        -43.8213   -37.3354     3.7494 H          1  LIG1   0.1300
     31 H5        -44.7488   -35.0831     3.7007 H          1  LIG1   0.1300
     32 H6        -47.0971   -34.7018     3.0861 H          1  LIG1   0.1300
     33 H7        -48.5562   -36.5656     2.5110 H          1  LIG1   0.1300
     34 H8        -48.8775   -38.9949     2.1987 H          1  LIG1   0.1400
     35 H9        -47.9719   -41.2500     2.2321 H          1  LIG1   0.1400
     36 H10       -44.8378   -41.9884     0.8104 H          1  LIG1   0.1500
@<TRIPOS>BOND
     1    1    2 2
     2    2    3 1
     3    2    4 1
     4    4   25 1
     5    4    5 2
     6    5    6 1
     7    5   27 1
     8    6    7 1
     9    6   28 1
    10    7   24 ar
    11    7    8 ar
    12    8    9 1
    13    8   10 ar
    14   10   11 ar
    15   10   29 1
    16   11   12 1
    17   11   23 ar
    18   12   22 ar
    19   12   13 ar
    20   13   14 1
    21   13   15 ar
    22   15   20 ar
    23   15   16 ar
    24   16   17 ar
    25   16   30 1
    26   17   18 ar
    27   17   31 1
    28   18   19 ar
    29   18   32 1
    30   19   20 ar
    31   19   33 1
    32   20   21 ar
    33   21   22 ar
    34   21   34 1
    35   22   35 1
    36   23   24 ar
    37   23   36 1
    38   24   25 1
    39   25   26 2
##########                 Name:     REAL300000243274
##########          Protonation:                 none
##########               SMILES:   CCC1=CC(Br)=CC2=C1NC(=O)C2=CC1=CC=CC(CC(=O)[O-])=C1
##########            Long Name:   NO_LONG_NAME
##########          FlexRecCode: 1
##########               Number:                 5325
##########   Ligand Source File: /mnt/nfs/exa/work/stefan/Anions/MWT-300-400/Each-pattern/BUILD/pattern1/All-chec
##########                 Rank:                    1
##########               Setnum:                   19
##########             Matchnum:                    1
##########                Cloud:                    1
##########        Electrostatic:           -63.252609
##########                 Gist:             0.000000
##########        Van der Waals:           -30.048349
##########  Ligand Polar Desolv:            36.680138
########## Ligand Apolar Desolv:            -7.599247
##########      Internal Energy:             0.000000
##########      Receptor Energy:             0.000000
########## Receptor Desolvation:             0.000000
########## Receptor Hydrophobic:             0.000000
##########         Total Energy:           -64.220062
##########        Ligand Charge:            -1.000000
##########            Arbitrary:    +999.9990
##########        Ligand Energy:             0.000000

@<TRIPOS>MOLECULE
 REAL300006855709      none
   46    50    -1     0     0



@<TRIPOS>ATOM
      1 O1        -42.4335   -47.0589    -1.9878 O.co2      1  LIG1  -0.6800
      2 C1        -43.3030   -47.2245    -1.1409 C.2        1  LIG1   0.5400
      3 O2        -43.6175   -48.3581    -0.7996 O.co2      1  LIG1  -0.6900
      4 C2        -43.9453   -46.1042    -0.5559 C.2        1  LIG1  -0.2100
      5 C3        -43.6835   -44.7963    -0.8519 C.2        1  LIG1  -0.1100
      6 C4        -44.4519   -43.9017    -0.1390 C.2        1  LIG1  -0.1400
      7 C5        -45.3143   -44.4713     0.7250 C.2        1  LIG1  -0.2400
      8 C6        -46.2573   -43.6979     1.6324 C.3        1  LIG1  -0.0400
      9 C7        -45.4136   -42.9366     2.6588 C.3        1  LIG1  -0.1300
     10 C8        -44.8956   -41.6370     2.0705 C.3        1  LIG1   0.1100
     11 N1        -43.9437   -41.8250     0.9888 N.am       1  LIG1  -0.5900
     12 C9        -42.6547   -41.4792     1.1770 C.2        1  LIG1   0.5500
     13 O3        -42.3000   -41.0167     2.2405 O.2        1  LIG1  -0.5400
     14 C10       -41.6542   -41.6673     0.0658 C.3        1  LIG1  -0.1700
     15 C11       -40.3554   -40.8596     0.1392 C.3        1  LIG1  -0.1300
     16 C12       -41.4260   -40.4959    -0.8821 C.3        1  LIG1  -0.0700
     17 C13       -42.2419   -39.1987    -0.7536 C.3        1  LIG1  -0.0900
     18 C14       -42.9799   -39.1410    -2.1095 C.3        1  LIG1  -0.0800
     19 C15       -42.1088   -39.9228    -3.0701 C.ar       1  LIG1  -0.0900
     20 C16       -42.1000   -39.9492    -4.4540 C.ar       1  LIG1  -0.1100
     21 C17       -41.2034   -40.7543    -5.1294 C.ar       1  LIG1  -0.1200
     22 C18       -40.3105   -41.5363    -4.4215 C.ar       1  LIG1  -0.1200
     23 C19       -40.3163   -41.5110    -3.0404 C.ar       1  LIG1  -0.1000
     24 C20       -41.2142   -40.7056    -2.3607 C.ar       1  LIG1  -0.0600
     25 C21       -44.3569   -42.3772    -0.3051 C.3        1  LIG1   0.1800
     26 S1        -45.2056   -46.1746     0.6660 S.3        1  LIG1   0.1900
     27 H1        -42.9431   -44.4919    -1.5769 H          1  LIG1   0.1400
     28 H2        -46.9248   -44.3902     2.1454 H          1  LIG1   0.0700
     29 H3        -46.8415   -42.9929     1.0408 H          1  LIG1   0.0700
     30 H4        -44.5688   -43.5564     2.9595 H          1  LIG1   0.0700
     31 H5        -46.0253   -42.7160     3.5336 H          1  LIG1   0.0800
     32 H6        -44.4141   -41.0634     2.8625 H          1  LIG1   0.0900
     33 H7        -45.7434   -41.0652     1.6932 H          1  LIG1   0.0600
     34 H8        -41.6001   -42.6721    -0.3531 H          1  LIG1   0.1300
     35 H9        -40.2247   -40.1922     0.9911 H          1  LIG1   0.1100
     36 H10       -39.4462   -41.3331    -0.2314 H          1  LIG1   0.1100
     37 H11       -42.9510   -39.2665     0.0715 H          1  LIG1   0.0800
     38 H12       -41.5850   -38.3375    -0.6325 H          1  LIG1   0.0800
     39 H13       -43.0777   -38.1079    -2.4430 H          1  LIG1   0.0800
     40 H14       -43.9626   -39.6055    -2.0268 H          1  LIG1   0.0800
     41 H15       -42.7973   -39.3382    -5.0080 H          1  LIG1   0.1200
     42 H16       -41.2000   -40.7722    -6.2093 H          1  LIG1   0.1200
     43 H17       -39.6084   -42.1663    -4.9475 H          1  LIG1   0.1300
     44 H18       -39.6178   -42.1225    -2.4884 H          1  LIG1   0.1200
     45 H19       -45.3290   -41.9726    -0.5868 H          1  LIG1   0.0800
     46 H20       -43.6172   -42.1294    -1.0665 H          1  LIG1   0.0900
@<TRIPOS>BOND
     1    1    2 2
     2    2    3 1
     3    2    4 1
     4    4   26 1
     5    4    5 2
     6    5    6 1
     7    5   27 1
     8    6   25 1
     9    6    7 2
    10    7    8 1
    11    7   26 1
    12    8    9 1
    13    8   28 1
    14    8   29 1
    15    9   10 1
    16    9   30 1
    17    9   31 1
    18   10   11 1
    19   10   32 1
    20   10   33 1
    21   11   12 am
    22   11   25 1
    23   12   13 2
    24   12   14 1
    25   14   16 1
    26   14   15 1
    27   14   34 1
    28   15   16 1
    29   15   35 1
    30   15   36 1
    31   16   24 1
    32   16   17 1
    33   17   18 1
    34   17   37 1
    35   17   38 1
    36   18   19 1
    37   18   39 1
    38   18   40 1
    39   19   24 ar
    40   19   20 ar
    41   20   21 ar
    42   20   41 1
    43   21   22 ar
    44   21   42 1
    45   22   23 ar
    46   22   43 1
    47   23   24 ar
    48   23   44 1
    49   25   45 1
    50   25   46 1
##########                 Name:     REAL300006712673
##########          Protonation:                 none
##########               SMILES:   O=C([O-])CN(CC1=CC=CC=C1)C(=O)CCC1=CNC2=CC=CC=C12
##########            Long Name:   NO_LONG_NAME
##########          FlexRecCode: 1
##########               Number:                 6463
##########   Ligand Source File: /mnt/nfs/exa/work/stefan/Anions/MWT-300-400/Each-pattern/BUILD/pattern1/All-chec
##########                 Rank:                    1
##########               Setnum:                  180
##########             Matchnum:                    1
##########                Cloud:                    1
##########        Electrostatic:           -57.734509
##########                 Gist:             0.000000
##########        Van der Waals:           -31.190361
##########  Ligand Polar Desolv:            32.212845
########## Ligand Apolar Desolv:            -8.589300
##########      Internal Energy:             0.000000
##########      Receptor Energy:             0.000000
########## Receptor Desolvation:             0.000000
########## Receptor Hydrophobic:             0.000000
##########         Total Energy:           -65.301323
##########        Ligand Charge:            -1.000000
##########            Arbitrary:    +999.9990
##########        Ligand Energy:             0.000000

@<TRIPOS>MOLECULE
 REAL300016198140      none
   39    40    -1     0     0



@<TRIPOS>ATOM
      1 C1        -48.2249   -42.1532     5.3500 C.3        1  LIG1  -0.1500
      2 C2        -47.9417   -41.6391     3.9371 C.3        1  LIG1  -0.0500
      3 C3        -47.0446   -42.6137     3.2182 C.2        1  LIG1   0.0300
      4 N1        -47.4550   -43.6088     2.5069 N.2        1  LIG1  -0.4700
      5 C4        -46.5342   -44.3657     1.9448 C.2        1  LIG1   0.0500
      6 C5        -45.2772   -43.9879     2.1960 C.2        1  LIG1  -0.2300
      7 C6        -44.0299   -44.6634     1.6871 C.3        1  LIG1   0.2200
      8 N2        -43.6449   -44.0740     0.4023 N.am       1  LIG1  -0.5600
      9 C7        -44.1643   -44.6367    -0.8467 C.3        1  LIG1   0.0400
     10 C8        -43.2270   -45.7072    -1.3434 C.2        1  LIG1   0.4800
     11 O1        -42.2187   -45.9752    -0.7126 O.co2      1  LIG1  -0.6800
     12 O2        -43.4772   -46.3051    -2.3761 O.co2      1  LIG1  -0.7000
     13 C9        -42.8130   -43.0142     0.3693 C.2        1  LIG1   0.6600
     14 O3        -42.3822   -42.5475     1.4053 O.2        1  LIG1  -0.5900
     15 O4        -42.4592   -42.4725    -0.8114 O.3        1  LIG1  -0.3500
     16 C10       -41.5601   -41.3331    -0.7710 C.3        1  LIG1   0.1300
     17 C11       -41.2783   -40.8655    -2.1756 C.ar       1  LIG1  -0.1400
     18 C12       -40.2120   -41.3901    -2.8894 C.ar       1  LIG1  -0.0400
     19 C13       -39.9871   -40.9256    -4.1765 C.ar       1  LIG1  -0.1800
     20 C14       -40.8307   -39.9662    -4.7032 C.ar       1  LIG1   0.1000
     21 N3        -41.8393   -39.4937    -3.9969 N.ar       1  LIG1  -0.4900
     22 C15       -42.0831   -39.9120    -2.7704 C.ar       1  LIG1   0.1200
     23 S1        -45.3356   -42.5651     3.2335 S.3        1  LIG1   0.1500
     24 H1        -48.7162   -43.1244     5.2916 H          1  LIG1   0.0600
     25 H2        -47.2862   -42.2531     5.8951 H          1  LIG1   0.0600
     26 H3        -48.8736   -41.4483     5.8698 H          1  LIG1   0.0700
     27 H4        -47.4504   -40.6679     3.9953 H          1  LIG1   0.0800
     28 H5        -48.8803   -41.5393     3.3919 H          1  LIG1   0.0900
     29 H6        -46.7757   -45.2212     1.3315 H          1  LIG1   0.1800
     30 H7        -44.2214   -45.7284     1.5554 H          1  LIG1   0.1100
     31 H8        -43.2227   -44.5256     2.4065 H          1  LIG1   0.1000
     32 H9        -45.1486   -45.0696    -0.6686 H          1  LIG1   0.0800
     33 H10       -44.2442   -43.8480    -1.5949 H          1  LIG1   0.0800
     34 H11       -40.6259   -41.6242    -0.2906 H          1  LIG1   0.0800
     35 H12       -42.0231   -40.5248    -0.2049 H          1  LIG1   0.0800
     36 H13       -39.5689   -42.1393    -2.4518 H          1  LIG1   0.1400
     37 H14       -39.1629   -41.3086    -4.7599 H          1  LIG1   0.1400
     38 H15       -40.6623   -39.5992    -5.7048 H          1  LIG1   0.1600
     39 H16       -42.9186   -39.5016    -2.2228 H          1  LIG1   0.1600
@<TRIPOS>BOND
     1    1    2 1
     2    1   24 1
     3    1   25 1
     4    1   26 1
     5    2    3 1
     6    2   27 1
     7    2   28 1
     8    3   23 1
     9    3    4 2
    10    4    5 1
    11    5    6 2
    12    5   29 1
    13    6    7 1
    14    6   23 1
    15    7    8 1
    16    7   30 1
    17    7   31 1
    18    8    9 1
    19    8   13 am
    20    9   10 1
    21    9   32 1
    22    9   33 1
    23   10   11 2
    24   10   12 1
    25   13   14 2
    26   13   15 1
    27   15   16 1
    28   16   17 1
    29   16   34 1
    30   16   35 1
    31   17   22 ar
    32   17   18 ar
    33   18   19 ar
    34   18   36 1
    35   19   20 ar
    36   19   37 1
    37   20   21 ar
    38   20   38 1
    39   21   22 ar
    40   22   39 1
##########                 Name:     REAL300010949394
##########          Protonation:                 none
##########               SMILES:   O=C([O-])[C@@H]1CCC[C@H](NS(=O)(=O)C2=CC3=CC=CC=C3CC2)C1
##########            Long Name:   NO_LONG_NAME
##########          FlexRecCode: 1
##########               Number:                 2806
##########   Ligand Source File: /mnt/nfs/exa/work/stefan/Anions/MWT-300-400/Each-pattern/BUILD/pattern1/All-chec
##########                 Rank:                    1
##########               Setnum:                   53
##########             Matchnum:                    1
##########                Cloud:                    1
##########        Electrostatic:           -72.046463
##########                 Gist:             0.000000
##########        Van der Waals:           -22.571257
##########  Ligand Polar Desolv:            35.093628
########## Ligand Apolar Desolv:            -5.780277
##########      Internal Energy:             0.000000
##########      Receptor Energy:             0.000000
########## Receptor Desolvation:             0.000000
########## Receptor Hydrophobic:             0.000000
##########         Total Energy:           -65.304367
##########        Ligand Charge:            -1.000000
##########            Arbitrary:    +999.9990
##########        Ligand Energy:             0.000000

@<TRIPOS>MOLECULE
 REAL300019362266      none
   50    53    -1     0     0



@<TRIPOS>ATOM
      1 O1        -42.2208   -45.9480    -0.2126 O.co2      1  LIG1  -0.6700
      2 C1        -42.8553   -44.9761    -0.5859 C.2        1  LIG1   0.5000
      3 O2        -42.8233   -44.6404    -1.7574 O.co2      1  LIG1  -0.6800
      4 C2        -43.6793   -44.1898     0.4010 C.3        1  LIG1   0.1200
      5 N1        -43.2017   -42.8055     0.4425 N.pl3      1  LIG1  -0.3000
      6 C3        -43.1690   -41.9454    -0.5969 C.2        1  LIG1   0.0900
      7 C4        -42.6592   -40.7752    -0.1480 C.2        1  LIG1  -0.2700
      8 C5        -42.4386   -39.5310    -0.9693 C.3        1  LIG1   0.0100
      9 C6        -41.8001   -39.9028    -2.2828 C.ar       1  LIG1  -0.1100
     10 C7        -42.4431   -39.6104    -3.4704 C.ar       1  LIG1  -0.0600
     11 C8        -41.8614   -39.9561    -4.6758 C.ar       1  LIG1  -0.1600
     12 C9        -40.6283   -40.5864    -4.6944 C.ar       1  LIG1   0.1200
     13 F1        -40.0580   -40.9191    -5.8731 F          1  LIG1  -0.1400
     14 C10       -39.9835   -40.8794    -3.5054 C.ar       1  LIG1  -0.1900
     15 C11       -40.5694   -40.5377    -2.2990 C.ar       1  LIG1   0.1400
     16 F2        -39.9411   -40.8237    -1.1376 F          1  LIG1  -0.1300
     17 C12       -42.3787   -40.9224     1.2145 C.2        1  LIG1   0.0400
     18 N2        -42.7036   -42.1390     1.5695 N.2        1  LIG1  -0.2900
     19 C13       -45.1472   -44.2102    -0.0296 C.3        1  LIG1  -0.1100
     20 C14       -45.9838   -43.4119     0.9723 C.3        1  LIG1  -0.1100
     21 C15       -45.8511   -44.0391     2.3616 C.3        1  LIG1  -0.0500
     22 C16       -46.6750   -43.2529     3.3484 C.ar       1  LIG1  -0.0600
     23 C17       -47.2331   -43.8867     4.4429 C.ar       1  LIG1  -0.1100
     24 C18       -47.9849   -43.1646     5.3508 C.ar       1  LIG1  -0.1200
     25 C19       -48.1865   -41.8106     5.1593 C.ar       1  LIG1  -0.1300
     26 C20       -47.6338   -41.1780     4.0612 C.ar       1  LIG1  -0.1200
     27 C21       -46.8776   -41.8991     3.1562 C.ar       1  LIG1  -0.1200
     28 C22       -44.3830   -44.0188     2.7922 C.3        1  LIG1  -0.1100
     29 C23       -43.5465   -44.8170     1.7902 C.3        1  LIG1  -0.0900
     30 H1        -43.4899   -42.1545    -1.6067 H          1  LIG1   0.1600
     31 H2        -41.7835   -38.8491    -0.4270 H          1  LIG1   0.0800
     32 H3        -43.3958   -39.0441    -1.1555 H          1  LIG1   0.0800
     33 H4        -43.4031   -39.1157    -3.4568 H          1  LIG1   0.1400
     34 H5        -42.3668   -39.7309    -5.6033 H          1  LIG1   0.1400
     35 H6        -39.0236   -41.3742    -3.5191 H          1  LIG1   0.1400
     36 H7        -41.9652   -40.1629     1.8615 H          1  LIG1   0.1700
     37 H8        -45.2418   -43.7634    -1.0193 H          1  LIG1   0.0600
     38 H9        -45.5026   -45.2402    -0.0605 H          1  LIG1   0.0900
     39 H10       -47.0297   -43.4265     0.6656 H          1  LIG1   0.0600
     40 H11       -45.6285   -42.3819     1.0032 H          1  LIG1   0.0600
     41 H12       -46.2064   -45.0691     2.3306 H          1  LIG1   0.0800
     42 H13       -47.0784   -44.9452     4.5907 H          1  LIG1   0.1200
     43 H14       -48.4175   -43.6589     6.2080 H          1  LIG1   0.1200
     44 H15       -48.7769   -41.2471     5.8666 H          1  LIG1   0.1200
     45 H16       -47.7922   -40.1202     3.9111 H          1  LIG1   0.1200
     46 H17       -46.4454   -41.4048     2.2988 H          1  LIG1   0.1200
     47 H18       -44.2885   -44.4655     3.7820 H          1  LIG1   0.0600
     48 H19       -44.0278   -42.9887     2.8231 H          1  LIG1   0.0800
     49 H20       -43.9018   -45.8469     1.7594 H          1  LIG1   0.0800
     50 H21       -42.5007   -44.8025     2.0970 H          1  LIG1   0.0700
@<TRIPOS>BOND
     1    1    2 2
     2    2    3 1
     3    2    4 1
     4    4   29 1
     5    4    5 1
     6    4   19 1
     7    5   18 1
     8    5    6 1
     9    6    7 2
    10    6   30 1
    11    7    8 1
    12    7   17 1
    13    8    9 1
    14    8   31 1
    15    8   32 1
    16    9   15 ar
    17    9   10 ar
    18   10   11 ar
    19   10   33 1
    20   11   12 ar
    21   11   34 1
    22   12   13 1
    23   12   14 ar
    24   14   15 ar
    25   14   35 1
    26   15   16 1
    27   17   18 2
    28   17   36 1
    29   19   20 1
    30   19   37 1
    31   19   38 1
    32   20   21 1
    33   20   39 1
    34   20   40 1
    35   21   22 1
    36   21   28 1
    37   21   41 1
    38   22   27 ar
    39   22   23 ar
    40   23   24 ar
    41   23   42 1
    42   24   25 ar
    43   24   43 1
    44   25   26 ar
    45   25   44 1
    46   26   27 ar
    47   26   45 1
    48   27   46 1
    49   28   29 1
    50   28   47 1
    51   28   48 1
    52   29   49 1
    53   29   50 1
##########                 Name:     REAL250004684289
##########          Protonation:                 none
##########               SMILES:   O=C(NC1=CC=CC(CC2=N[N-]N=N2)=C1)C1=CCCOC1
##########            Long Name:   NO_LONG_NAME
##########          FlexRecCode: 1
##########               Number:                13610
##########   Ligand Source File: /mnt/nfs/exa/work/stefan/Anions/MWT-250-300/Each-pattern/BUILD/pattern3/All-chec
##########                 Rank:                    1
##########               Setnum:                   52
##########             Matchnum:                    1
##########                Cloud:                    1
##########        Electrostatic:           -76.380272
##########                 Gist:             0.000000
##########        Van der Waals:           -14.243662
##########  Ligand Polar Desolv:            30.022404
########## Ligand Apolar Desolv:            -2.627128
##########      Internal Energy:             0.000000
##########      Receptor Energy:             0.000000
########## Receptor Desolvation:             0.000000
########## Receptor Hydrophobic:             0.000000
##########         Total Energy:           -63.228657
##########        Ligand Charge:            -1.000000
##########            Arbitrary:    +999.9990
##########        Ligand Energy:             0.000000

@<TRIPOS>MOLECULE
 REAL300009514504      none
   45    47    -1     0     0



@<TRIPOS>ATOM
      1 O1        -43.1919   -44.9023    -1.7958 O.co2      1  LIG1  -0.7000
      2 C1        -43.1710   -44.8624    -0.5775 C.2        1  LIG1   0.5000
      3 O2        -42.2158   -45.3138     0.0310 O.co2      1  LIG1  -0.6900
      4 C2        -44.3258   -44.2548     0.1765 C.3        1  LIG1  -0.1700
      5 C3        -44.9224   -45.2682     1.1856 C.3        1  LIG1  -0.0900
      6 C4        -45.6101   -44.3841     2.2464 C.3        1  LIG1  -0.1200
      7 C5        -44.9218   -43.0091     2.1873 C.3        1  LIG1  -0.1400
      8 C6        -43.8388   -43.1050     1.0929 C.3        1  LIG1   0.1700
      9 N1        -43.7547   -41.8490     0.3435 N.am       1  LIG1  -0.6900
     10 C7        -42.5867   -41.1797     0.2792 C.2        1  LIG1   0.5400
     11 O3        -41.6053   -41.6170     0.8416 O.2        1  LIG1  -0.5300
     12 C8        -42.5002   -39.8875    -0.4917 C.3        1  LIG1  -0.0600
     13 S1        -41.2428   -38.8179     0.2603 S.3        1  LIG1  -0.0600
     14 C9        -42.0915   -38.1147     1.6350 C.ar       1  LIG1  -0.1400
     15 C10       -42.0631   -38.7508     2.8698 C.ar       1  LIG1  -0.0300
     16 C11       -42.7242   -38.1947     3.9472 C.ar       1  LIG1  -0.1600
     17 C12       -43.4247   -37.0099     3.7947 C.ar       1  LIG1   0.1200
     18 F1        -44.0758   -36.4709     4.8487 F          1  LIG1  -0.1400
     19 C13       -43.4593   -36.3769     2.5637 C.ar       1  LIG1  -0.1700
     20 C14       -42.7950   -36.9260     1.4846 C.ar       1  LIG1  -0.0400
     21 C15       -42.1216   -40.1796    -1.9209 C.ar       1  LIG1  -0.0800
     22 C16       -42.5608   -39.3499    -2.9356 C.ar       1  LIG1  -0.0800
     23 C17       -42.2094   -39.6150    -4.2460 C.ar       1  LIG1  -0.1100
     24 C18       -41.4276   -40.7158    -4.5428 C.ar       1  LIG1  -0.1100
     25 C19       -40.9929   -41.5485    -3.5286 C.ar       1  LIG1  -0.1200
     26 C20       -41.3400   -41.2803    -2.2176 C.ar       1  LIG1  -0.1000
     27 H1        -45.0921   -43.9009    -0.5133 H          1  LIG1   0.0700
     28 H2        -44.1311   -45.8641     1.6404 H          1  LIG1   0.0700
     29 H3        -45.6520   -45.9122     0.6946 H          1  LIG1   0.0600
     30 H4        -45.4841   -44.8225     3.2364 H          1  LIG1   0.0600
     31 H5        -46.6704   -44.2811     2.0161 H          1  LIG1   0.0600
     32 H6        -45.6480   -42.2389     1.9276 H          1  LIG1   0.0600
     33 H7        -44.4626   -42.7798     3.1490 H          1  LIG1   0.0600
     34 H8        -42.8725   -43.3511     1.5329 H          1  LIG1   0.0900
     35 H9        -44.5396   -41.4991    -0.1065 H          1  LIG1   0.4000
     36 H10       -43.4669   -39.3845    -0.4674 H          1  LIG1   0.1100
     37 H11       -41.5206   -39.6771     2.9882 H          1  LIG1   0.1400
     38 H12       -42.6989   -38.6867     4.9083 H          1  LIG1   0.1400
     39 H13       -44.0066   -35.4532     2.4470 H          1  LIG1   0.1400
     40 H14       -42.8225   -36.4321     0.5246 H          1  LIG1   0.1400
     41 H15       -43.1752   -38.4924    -2.7042 H          1  LIG1   0.1300
     42 H16       -42.5494   -38.9647    -5.0384 H          1  LIG1   0.1200
     43 H17       -41.1570   -40.9255    -5.5671 H          1  LIG1   0.1200
     44 H18       -40.3826   -42.4087    -3.7605 H          1  LIG1   0.1200
     45 H19       -41.0005   -41.9311    -1.4254 H          1  LIG1   0.1200
@<TRIPOS>BOND
     1    1    2 2
     2    2    3 1
     3    2    4 1
     4    4    8 1
     5    4    5 1
     6    4   27 1
     7    5    6 1
     8    5   28 1
     9    5   29 1
    10    6    7 1
    11    6   30 1
    12    6   31 1
    13    7    8 1
    14    7   32 1
    15    7   33 1
    16    8    9 1
    17    8   34 1
    18    9   10 am
    19    9   35 1
    20   10   11 2
    21   10   12 1
    22   12   13 1
    23   12   21 1
    24   12   36 1
    25   13   14 1
    26   14   20 ar
    27   14   15 ar
    28   15   16 ar
    29   15   37 1
    30   16   17 ar
    31   16   38 1
    32   17   18 1
    33   17   19 ar
    34   19   20 ar
    35   19   39 1
    36   20   40 1
    37   21   26 ar
    38   21   22 ar
    39   22   23 ar
    40   22   41 1
    41   23   24 ar
    42   23   42 1
    43   24   25 ar
    44   24   43 1
    45   25   26 ar
    46   25   44 1
    47   26   45 1
##########                 Name:     REAL250003069145
##########          Protonation:                 none
##########               SMILES:   CC1=C(C(=O)NC2=CC=CC(CCC(=O)[O-])=C2)OC=C1
##########            Long Name:   NO_LONG_NAME
##########          FlexRecCode: 1
##########               Number:                 3998
##########   Ligand Source File: /mnt/nfs/exa/work/stefan/Anions/MWT-250-300/Each-pattern/BUILD/pattern1/All-chec
##########                 Rank:                    1
##########               Setnum:                   25
##########             Matchnum:                    1
##########                Cloud:                    1
##########        Electrostatic:           -70.665474
##########                 Gist:             0.000000
##########        Van der Waals:           -21.035957
##########  Ligand Polar Desolv:            33.828228
########## Ligand Apolar Desolv:            -5.482728
##########      Internal Energy:             0.000000
##########      Receptor Energy:             0.000000
########## Receptor Desolvation:             0.000000
########## Receptor Hydrophobic:             0.000000
##########         Total Energy:           -63.355930
##########        Ligand Charge:            -1.000000
##########            Arbitrary:    +999.9990
##########        Ligand Energy:             0.000000

@<TRIPOS>MOLECULE
 REAL300006517493      none
   50    52    -1     0     0



@<TRIPOS>ATOM
      1 O1        -43.5988   -45.8907    -2.3468 O.co2      1  LIG1  -0.7000
      2 C1        -43.2336   -45.4906    -1.2546 C.2        1  LIG1   0.4900
      3 O2        -42.2146   -45.9336    -0.7527 O.co2      1  LIG1  -0.7000
      4 C2        -44.0417   -44.4487    -0.5250 C.3        1  LIG1  -0.1500
      5 C3        -44.4908   -44.9959     0.8028 C.3        1  LIG1  -0.1100
      6 C4        -45.8760   -44.4661     1.2206 C.3        1  LIG1  -0.1100
      7 C5        -46.0540   -42.9639     0.9286 C.3        1  LIG1  -0.1200
      8 C6        -44.8281   -42.1614     1.2713 C.3        1  LIG1   0.1500
      9 N1        -45.2262   -40.8362     1.7525 N.am       1  LIG1  -0.7200
     10 C7        -44.4513   -40.1802     2.6389 C.2        1  LIG1   0.5700
     11 O3        -43.4212   -40.6887     3.0393 O.2        1  LIG1  -0.5300
     12 C8        -44.8512   -38.8488     3.1225 C.2        1  LIG1  -0.1400
     13 C9        -43.9663   -37.9118     3.5568 C.2        1  LIG1  -0.2200
     14 S1        -44.7761   -36.4923     4.0408 S.3        1  LIG1   0.1800
     15 C10       -46.3490   -37.1672     3.6524 C.2        1  LIG1  -0.1900
     16 C11       -47.6598   -36.4442     3.8263 C.3        1  LIG1  -0.0100
     17 C12       -48.3612   -36.3270     2.4716 C.3        1  LIG1  -0.1100
     18 C13       -49.6920   -35.5929     2.6481 C.3        1  LIG1  -0.1200
     19 C14       -49.4321   -34.1941     3.2106 C.3        1  LIG1  -0.1200
     20 C15       -48.7307   -34.3113     4.5654 C.3        1  LIG1  -0.1200
     21 C16       -47.3999   -35.0454     4.3887 C.3        1  LIG1  -0.1100
     22 C17       -46.2231   -38.4012     3.1787 C.2        1  LIG1  -0.0900
     23 C18       -43.9676   -42.0140    -0.0004 C.3        1  LIG1  -0.1100
     24 C19       -43.1707   -43.2013    -0.2715 C.3        1  LIG1  -0.1000
     25 H1        -44.9119   -44.1729    -1.1206 H          1  LIG1   0.0600
     26 H2        -44.5334   -46.0832     0.7400 H          1  LIG1   0.0800
     27 H3        -43.7622   -44.7168     1.5640 H          1  LIG1   0.0500
     28 H4        -46.6425   -45.0224     0.6811 H          1  LIG1   0.0600
     29 H5        -46.0083   -44.6328     2.2896 H          1  LIG1   0.0500
     30 H6        -46.2755   -42.8344    -0.1308 H          1  LIG1   0.0600
     31 H7        -46.8954   -42.5887     1.5112 H          1  LIG1   0.0600
     32 H8        -44.2564   -42.6776     2.0425 H          1  LIG1   0.0900
     33 H9        -46.0475   -40.4307     1.4331 H          1  LIG1   0.3900
     34 H10       -42.8955   -38.0484     3.5899 H          1  LIG1   0.1700
     35 H11       -48.2933   -37.0014     4.5163 H          1  LIG1   0.0900
     36 H12       -47.7276   -35.7698     1.7813 H          1  LIG1   0.0600
     37 H13       -48.5463   -37.3236     2.0707 H          1  LIG1   0.0700
     38 H14       -50.3254   -36.1503     3.3382 H          1  LIG1   0.0600
     39 H15       -50.1917   -35.5094     1.6829 H          1  LIG1   0.0600
     40 H16       -50.3802   -33.6712     3.3364 H          1  LIG1   0.0600
     41 H17       -48.7985   -33.6369     2.5206 H          1  LIG1   0.0600
     42 H18       -49.3643   -34.8687     5.2555 H          1  LIG1   0.0600
     43 H19       -48.5456   -33.3148     4.9661 H          1  LIG1   0.0600
     44 H20       -46.9003   -35.1289     5.3539 H          1  LIG1   0.0700
     45 H21       -46.7664   -34.4881     3.6987 H          1  LIG1   0.0600
     46 H22       -47.0609   -39.0089     2.8702 H          1  LIG1   0.1500
     47 H23       -43.3000   -41.1611     0.1221 H          1  LIG1   0.0600
     48 H24       -44.6235   -41.8273    -0.8506 H          1  LIG1   0.0600
     49 H25       -42.5523   -43.0182    -1.1502 H          1  LIG1   0.0800
     50 H26       -42.5204   -43.3924     0.5821 H          1  LIG1   0.0500
@<TRIPOS>BOND
     1    1    2 2
     2    2    3 1
     3    2    4 1
     4    4   24 1
     5    4    5 1
     6    4   25 1
     7    5    6 1
     8    5   26 1
     9    5   27 1
    10    6    7 1
    11    6   28 1
    12    6   29 1
    13    7    8 1
    14    7   30 1
    15    7   31 1
    16    8    9 1
    17    8   23 1
    18    8   32 1
    19    9   10 am
    20    9   33 1
    21   10   11 2
    22   10   12 1
    23   12   22 1
    24   12   13 2
    25   13   14 1
    26   13   34 1
    27   14   15 1
    28   15   16 1
    29   15   22 2
    30   16   21 1
    31   16   17 1
    32   16   35 1
    33   17   18 1
    34   17   36 1
    35   17   37 1
    36   18   19 1
    37   18   38 1
    38   18   39 1
    39   19   20 1
    40   19   40 1
    41   19   41 1
    42   20   21 1
    43   20   42 1
    44   20   43 1
    45   21   44 1
    46   21   45 1
    47   22   46 1
    48   23   24 1
    49   23   47 1
    50   23   48 1
    51   24   49 1
    52   24   50 1
##########                 Name:     REAL300022929359
##########          Protonation:                 none
##########               SMILES:   CC(=CC(=O)[N-]S(=O)(=O)NC1=CC=CC(C#N)=C1)C1=CC=CC=C1C
##########            Long Name:   NO_LONG_NAME
##########          FlexRecCode: 1
##########               Number:                 1442
##########   Ligand Source File: /mnt/nfs/exa/work/stefan/Anions/MWT-300-400/Each-pattern/BUILD/pattern4/All-chec
##########                 Rank:                    1
##########               Setnum:                    1
##########             Matchnum:                    1
##########                Cloud:                    1
##########        Electrostatic:           -65.834953
##########                 Gist:             0.000000
##########        Van der Waals:           -26.618687
##########  Ligand Polar Desolv:            32.491268
########## Ligand Apolar Desolv:            -3.667546
##########      Internal Energy:             0.000000
##########      Receptor Energy:             0.000000
########## Receptor Desolvation:             0.000000
########## Receptor Hydrophobic:             0.000000
##########         Total Energy:           -63.629921
##########        Ligand Charge:            -1.000000
##########            Arbitrary:    +999.9990
##########        Ligand Energy:             0.000000

@<TRIPOS>MOLECULE
 REAL300017113082      none
   44    46    -1     0     0



@<TRIPOS>ATOM
      1 O1        -43.4053   -47.8139    -0.1512 O.co2      1  LIG1  -0.7000
      2 C1        -43.4537   -46.5970    -0.2076 C.2        1  LIG1   0.5000
      3 O2        -42.5893   -45.9796    -0.8062 O.co2      1  LIG1  -0.7000
      4 C2        -44.5819   -45.8559     0.4624 C.3        1  LIG1  -0.1700
      5 C3        -44.1125   -44.6822     1.3399 C.3        1  LIG1  -0.1000
      6 C4        -45.3082   -43.8993     0.7873 C.3        1  LIG1  -0.0600
      7 C5        -45.2559   -44.8102    -0.4434 C.3        1  LIG1  -0.0800
      8 C6        -45.0019   -42.4338     0.4871 C.3        1  LIG1  -0.1100
      9 C7        -44.8351   -41.6635     1.7958 C.3        1  LIG1   0.1500
     10 N1        -44.3472   -40.3138     1.5020 N.pl3      1  LIG1  -1.1100
     11 S1        -42.7191   -40.0209     1.4228 S.o2       1  LIG1   2.6900
     12 O3        -42.5479   -38.6342     1.6811 O.2        1  LIG1  -0.9700
     13 O4        -42.0908   -41.0380     2.1908 O.2        1  LIG1  -0.9600
     14 C8        -42.2231   -40.2808    -0.2479 C.2        1  LIG1  -0.7500
     15 C9        -40.9949   -40.7012    -0.5169 C.2        1  LIG1   0.0600
     16 C10       -40.5787   -40.9191    -1.9182 C.ar       1  LIG1  -0.1100
     17 C11       -39.6177   -41.8844    -2.2212 C.ar       1  LIG1  -0.0500
     18 C12       -39.2357   -42.0865    -3.5310 C.ar       1  LIG1  -0.1500
     19 C13       -39.7978   -41.3266    -4.5443 C.ar       1  LIG1   0.1200
     20 F1        -39.4168   -41.5252    -5.8251 F          1  LIG1  -0.1300
     21 C14       -40.7492   -40.3634    -4.2483 C.ar       1  LIG1  -0.1600
     22 C15       -41.1414   -40.1564    -2.9425 C.ar       1  LIG1  -0.0600
     23 C16       -46.1630   -41.5663     2.5402 C.3        1  LIG1  -0.1400
     24 C17       -46.5368   -42.9270     3.1350 C.3        1  LIG1  -0.0900
     25 S2        -46.8198   -44.0981     1.7717 S.3        1  LIG1  -0.2300
     26 H1        -45.2873   -46.5196     0.9624 H          1  LIG1   0.0900
     27 H2        -44.1778   -44.8825     2.4094 H          1  LIG1   0.0600
     28 H3        -43.1469   -44.2730     1.0427 H          1  LIG1   0.0800
     29 H4        -44.6082   -44.4367    -1.2366 H          1  LIG1   0.0900
     30 H5        -46.2384   -45.1135    -0.8049 H          1  LIG1   0.0600
     31 H6        -44.0812   -42.3672    -0.0927 H          1  LIG1   0.0800
     32 H7        -45.8228   -42.0015    -0.0851 H          1  LIG1   0.0800
     33 H8        -44.1090   -42.1784     2.4250 H          1  LIG1   0.0900
     34 H9        -44.9776   -39.5918     1.3538 H          1  LIG1   0.4200
     35 H10       -42.9196   -40.0977    -1.0527 H          1  LIG1   0.1600
     36 H11       -40.2983   -40.8842     0.2880 H          1  LIG1   0.1500
     37 H12       -39.1761   -42.4746    -1.4317 H          1  LIG1   0.1400
     38 H13       -38.4941   -42.8354    -3.7670 H          1  LIG1   0.1500
     39 H14       -41.1840   -39.7736    -5.0418 H          1  LIG1   0.1400
     40 H15       -41.8824   -39.4049    -2.7128 H          1  LIG1   0.1400
     41 H16       -46.0745   -40.8336     3.3424 H          1  LIG1   0.0900
     42 H17       -46.9430   -41.2507     1.8474 H          1  LIG1   0.0800
     43 H18       -45.7230   -43.2875     3.7641 H          1  LIG1   0.0900
     44 H19       -47.4442   -42.8290     3.7310 H          1  LIG1   0.1100
@<TRIPOS>BOND
     1    1    2 2
     2    2    3 1
     3    2    4 1
     4    4    7 1
     5    4    5 1
     6    4   26 1
     7    5    6 1
     8    5   27 1
     9    5   28 1
    10    6   25 1
    11    6    7 1
    12    6    8 1
    13    7   29 1
    14    7   30 1
    15    8    9 1
    16    8   31 1
    17    8   32 1
    18    9   10 1
    19    9   23 1
    20    9   33 1
    21   10   11 1
    22   10   34 1
    23   11   12 2
    24   11   13 2
    25   11   14 1
    26   14   15 2
    27   14   35 1
    28   15   16 1
    29   15   36 1
    30   16   22 ar
    31   16   17 ar
    32   17   18 ar
    33   17   37 1
    34   18   19 ar
    35   18   38 1
    36   19   20 1
    37   19   21 ar
    38   21   22 ar
    39   21   39 1
    40   22   40 1
    41   23   24 1
    42   23   41 1
    43   23   42 1
    44   24   25 1
    45   24   43 1
    46   24   44 1
##########                 Name:     REAL300005926870
##########          Protonation:                 none
##########               SMILES:   O=C([O-])C1=CC=C(NC(=O)C2=NOC(C3=CC=CC=C3)=C2)C=C1Br
##########            Long Name:   NO_LONG_NAME
##########          FlexRecCode: 1
##########               Number:                 4432
##########   Ligand Source File: /mnt/nfs/exa/work/stefan/Anions/MWT-300-400/Each-pattern/BUILD/pattern1/All-chec
##########                 Rank:                    1
##########               Setnum:                    5
##########             Matchnum:                    1
##########                Cloud:                    1
##########        Electrostatic:           -65.348900
##########                 Gist:             0.000000
##########        Van der Waals:           -26.560196
##########  Ligand Polar Desolv:            34.600792
########## Ligand Apolar Desolv:            -5.929325
##########      Internal Energy:             0.000000
##########      Receptor Energy:             0.000000
########## Receptor Desolvation:             0.000000
########## Receptor Hydrophobic:             0.000000
##########         Total Energy:           -63.237629
##########        Ligand Charge:            -1.000000
##########            Arbitrary:    +999.9990
##########        Ligand Energy:             0.000000

@<TRIPOS>MOLECULE
 REAL300013677239      none
   49    51    -1     0     0



@<TRIPOS>ATOM
      1 C1        -43.0348   -35.5305     3.3751 C.3        1  LIG1   0.1000
      2 N1        -44.4291   -35.9800     3.3691 N.pl3      1  LIG1  -0.3600
      3 N2        -45.5591   -35.1540     3.4218 N.2        1  LIG1  -0.2800
      4 C2        -46.6283   -35.9213     3.3974 C.2        1  LIG1   0.1100
      5 C3        -48.0374   -35.4569     3.4355 C.ar       1  LIG1  -0.0100
      6 C4        -49.0347   -36.1967     2.8036 C.ar       1  LIG1  -0.0900
      7 C5        -50.3441   -35.7625     2.8458 C.ar       1  LIG1  -0.1200
      8 C6        -50.6661   -34.5911     3.5059 C.ar       1  LIG1  -0.1100
      9 C7        -49.6789   -33.8494     4.1307 C.ar       1  LIG1  -0.1200
     10 C8        -48.3670   -34.2768     4.0987 C.ar       1  LIG1  -0.0900
     11 C9        -46.1988   -37.2606     3.3227 C.2        1  LIG1  -0.2300
     12 C10       -44.8480   -37.2624     3.3124 C.2        1  LIG1   0.0700
     13 C11       -43.9642   -38.4810     3.2433 C.3        1  LIG1   0.2100
     14 N3        -44.4804   -39.4016     2.2271 N.am       1  LIG1  -0.7500
     15 C12       -43.8463   -40.5669     1.9891 C.2        1  LIG1   0.7000
     16 O1        -42.8459   -40.8540     2.6176 O.2        1  LIG1  -0.5900
     17 N4        -44.3213   -41.4137     1.0544 N.am       1  LIG1  -0.7400
     18 C13       -43.6320   -42.6804     0.7957 C.3        1  LIG1   0.1600
     19 C14       -44.2061   -43.7684     1.7055 C.3        1  LIG1  -0.1200
     20 C15       -43.4863   -45.0912     1.4353 C.3        1  LIG1  -0.0900
     21 C16       -43.6870   -45.4914    -0.0278 C.3        1  LIG1  -0.1500
     22 C17       -42.9781   -46.7944    -0.2938 C.2        1  LIG1   0.5000
     23 O2        -43.6096   -47.7653    -0.6746 O.co2      1  LIG1  -0.7100
     24 O3        -41.7730   -46.8777    -0.1283 O.co2      1  LIG1  -0.7000
     25 C18       -43.1130   -44.4035    -0.9375 C.3        1  LIG1  -0.0900
     26 C19       -43.8327   -43.0807    -0.6673 C.3        1  LIG1  -0.1200
     27 H1        -43.0041   -34.4421     3.4269 H          1  LIG1   0.0800
     28 H2        -42.5216   -35.9500     4.2405 H          1  LIG1   0.0900
     29 H3        -42.5412   -35.8649     2.4626 H          1  LIG1   0.0900
     30 H4        -48.7839   -37.1099     2.2843 H          1  LIG1   0.1300
     31 H5        -51.1185   -36.3373     2.3597 H          1  LIG1   0.1300
     32 H6        -51.6912   -34.2523     3.5334 H          1  LIG1   0.1200
     33 H7        -49.9356   -32.9348     4.6447 H          1  LIG1   0.1200
     34 H8        -47.5972   -33.6977     4.5871 H          1  LIG1   0.1300
     35 H9        -46.8363   -38.1316     3.2829 H          1  LIG1   0.1500
     36 H10       -43.9547   -38.9786     4.2130 H          1  LIG1   0.1000
     37 H11       -42.9504   -38.1800     2.9793 H          1  LIG1   0.0800
     38 H12       -45.2785   -39.1725     1.7257 H          1  LIG1   0.4000
     39 H13       -45.1194   -41.1847     0.5529 H          1  LIG1   0.3900
     40 H14       -42.5673   -42.5625     0.9974 H          1  LIG1   0.0900
     41 H15       -45.2708   -43.8863     1.5038 H          1  LIG1   0.0600
     42 H16       -44.0631   -43.4832     2.7478 H          1  LIG1   0.0600
     43 H17       -43.8953   -45.8663     2.0834 H          1  LIG1   0.0600
     44 H18       -42.4216   -44.9734     1.6369 H          1  LIG1   0.0700
     45 H19       -44.7517   -45.6093    -0.2294 H          1  LIG1   0.0600
     46 H20       -42.0484   -44.2856    -0.7358 H          1  LIG1   0.0600
     47 H21       -43.2559   -44.6886    -1.9797 H          1  LIG1   0.0600
     48 H22       -44.8975   -43.1985    -0.8690 H          1  LIG1   0.0600
     49 H23       -43.4238   -42.3055    -1.3154 H          1  LIG1   0.0600
@<TRIPOS>BOND
     1    1    2 1
     2    1   27 1
     3    1   28 1
     4    1   29 1
     5    2   12 1
     6    2    3 1
     7    3    4 2
     8    4    5 1
     9    4   11 1
    10    5   10 ar
    11    5    6 ar
    12    6    7 ar
    13    6   30 1
    14    7    8 ar
    15    7   31 1
    16    8    9 ar
    17    8   32 1
    18    9   10 ar
    19    9   33 1
    20   10   34 1
    21   11   12 2
    22   11   35 1
    23   12   13 1
    24   13   14 1
    25   13   36 1
    26   13   37 1
    27   14   15 am
    28   14   38 1
    29   15   16 2
    30   15   17 am
    31   17   18 1
    32   17   39 1
    33   18   26 1
    34   18   19 1
    35   18   40 1
    36   19   20 1
    37   19   41 1
    38   19   42 1
    39   20   21 1
    40   20   43 1
    41   20   44 1
    42   21   22 1
    43   21   25 1
    44   21   45 1
    45   22   23 2
    46   22   24 1
    47   25   26 1
    48   25   46 1
    49   25   47 1
    50   26   48 1
    51   26   49 1
##########                 Name:     REAL300005010226
##########          Protonation:                 none
##########               SMILES:   O=C(CC1COCCO1)NC1CCSC2(CC(C(=O)[O-])C2)C1
##########            Long Name:   NO_LONG_NAME
##########          FlexRecCode: 1
##########               Number:                  495
##########   Ligand Source File: /mnt/nfs/exa/work/stefan/Anions/MWT-300-400/Each-pattern/BUILD/pattern1/All-chec
##########                 Rank:                    1
##########               Setnum:                   84
##########             Matchnum:                    1
##########                Cloud:                    1
##########        Electrostatic:           -73.809830
##########                 Gist:             0.000000
##########        Van der Waals:           -24.313353
##########  Ligand Polar Desolv:            38.860130
########## Ligand Apolar Desolv:            -4.446886
##########      Internal Energy:             0.000000
##########      Receptor Energy:             0.000000
########## Receptor Desolvation:             0.000000
########## Receptor Hydrophobic:             0.000000
##########         Total Energy:           -63.709938
##########        Ligand Charge:            -1.000000
##########            Arbitrary:    +999.9990
##########        Ligand Energy:             0.000000

@<TRIPOS>MOLECULE
 REAL300008073447      none
   44    46    -1     0     0



@<TRIPOS>ATOM
      1 O1        -43.4053   -47.8139    -0.1512 O.co2      1  LIG1  -0.7000
      2 C1        -43.4537   -46.5970    -0.2076 C.2        1  LIG1   0.5000
      3 O2        -42.5893   -45.9796    -0.8062 O.co2      1  LIG1  -0.7000
      4 C2        -44.5819   -45.8559     0.4624 C.3        1  LIG1  -0.1700
      5 C3        -44.1125   -44.6822     1.3399 C.3        1  LIG1  -0.1000
      6 C4        -45.3082   -43.8993     0.7873 C.3        1  LIG1  -0.0600
      7 C5        -45.2559   -44.8102    -0.4434 C.3        1  LIG1  -0.0800
      8 C6        -45.0019   -42.4338     0.4871 C.3        1  LIG1  -0.1100
      9 C7        -44.8351   -41.6635     1.7958 C.3        1  LIG1   0.1500
     10 N1        -44.3472   -40.3138     1.5020 N.pl3      1  LIG1  -1.1100
     11 S1        -42.7191   -40.0209     1.4228 S.o2       1  LIG1   2.6900
     12 O3        -42.5479   -38.6342     1.6811 O.2        1  LIG1  -0.9700
     13 O4        -42.0908   -41.0380     2.1908 O.2        1  LIG1  -0.9600
     14 C8        -42.2231   -40.2808    -0.2479 C.2        1  LIG1  -0.7500
     15 C9        -40.9949   -40.7012    -0.5169 C.2        1  LIG1   0.0600
     16 C10       -40.5787   -40.9191    -1.9182 C.ar       1  LIG1  -0.1100
     17 C11       -39.6177   -41.8844    -2.2212 C.ar       1  LIG1  -0.0500
     18 C12       -39.2357   -42.0865    -3.5310 C.ar       1  LIG1  -0.1500
     19 C13       -39.7978   -41.3266    -4.5443 C.ar       1  LIG1   0.1200
     20 F1        -39.4168   -41.5252    -5.8251 F          1  LIG1  -0.1300
     21 C14       -40.7492   -40.3634    -4.2483 C.ar       1  LIG1  -0.1600
     22 C15       -41.1414   -40.1564    -2.9425 C.ar       1  LIG1  -0.0600
     23 C16       -46.1630   -41.5663     2.5402 C.3        1  LIG1  -0.1400
     24 C17       -46.5368   -42.9270     3.1350 C.3        1  LIG1  -0.0900
     25 S2        -46.8198   -44.0981     1.7717 S.3        1  LIG1  -0.2300
     26 H1        -45.2873   -46.5196     0.9624 H          1  LIG1   0.0900
     27 H2        -44.1778   -44.8825     2.4094 H          1  LIG1   0.0600
     28 H3        -43.1469   -44.2730     1.0427 H          1  LIG1   0.0800
     29 H4        -44.6082   -44.4367    -1.2366 H          1  LIG1   0.0900
     30 H5        -46.2384   -45.1135    -0.8049 H          1  LIG1   0.0600
     31 H6        -44.0812   -42.3672    -0.0927 H          1  LIG1   0.0800
     32 H7        -45.8228   -42.0015    -0.0851 H          1  LIG1   0.0800
     33 H8        -44.1090   -42.1784     2.4250 H          1  LIG1   0.0900
     34 H9        -44.9776   -39.5918     1.3538 H          1  LIG1   0.4200
     35 H10       -42.9196   -40.0977    -1.0527 H          1  LIG1   0.1600
     36 H11       -40.2983   -40.8842     0.2880 H          1  LIG1   0.1500
     37 H12       -39.1761   -42.4746    -1.4317 H          1  LIG1   0.1400
     38 H13       -38.4941   -42.8354    -3.7670 H          1  LIG1   0.1500
     39 H14       -41.1840   -39.7736    -5.0418 H          1  LIG1   0.1400
     40 H15       -41.8824   -39.4049    -2.7128 H          1  LIG1   0.1400
     41 H16       -46.0745   -40.8336     3.3424 H          1  LIG1   0.0900
     42 H17       -46.9430   -41.2507     1.8474 H          1  LIG1   0.0800
     43 H18       -45.7230   -43.2875     3.7641 H          1  LIG1   0.0900
     44 H19       -47.4442   -42.8290     3.7310 H          1  LIG1   0.1100
@<TRIPOS>BOND
     1    1    2 2
     2    2    3 1
     3    2    4 1
     4    4    7 1
     5    4    5 1
     6    4   26 1
     7    5    6 1
     8    5   27 1
     9    5   28 1
    10    6   25 1
    11    6    7 1
    12    6    8 1
    13    7   29 1
    14    7   30 1
    15    8    9 1
    16    8   31 1
    17    8   32 1
    18    9   10 1
    19    9   23 1
    20    9   33 1
    21   10   11 1
    22   10   34 1
    23   11   12 2
    24   11   13 2
    25   11   14 1
    26   14   15 2
    27   14   35 1
    28   15   16 1
    29   15   36 1
    30   16   22 ar
    31   16   17 ar
    32   17   18 ar
    33   17   37 1
    34   18   19 ar
    35   18   38 1
    36   19   20 1
    37   19   21 ar
    38   21   22 ar
    39   21   39 1
    40   22   40 1
    41   23   24 1
    42   23   41 1
    43   23   42 1
    44   24   25 1
    45   24   43 1
    46   24   44 1
##########                 Name:     REAL300001459182
##########          Protonation:                 none
##########               SMILES:   CC(C)(C)O[C@@H]1C[C@H]1C(=O)NC(CC(=O)[O-])C1=CC=CC(Br)=C1
##########            Long Name:   NO_LONG_NAME
##########          FlexRecCode: 1
##########               Number:                 4834
##########   Ligand Source File: /mnt/nfs/exa/work/stefan/Anions/MWT-300-400/Each-pattern/BUILD/pattern1/All-chec
##########                 Rank:                    1
##########               Setnum:                  165
##########             Matchnum:                    1
##########                Cloud:                    1
##########        Electrostatic:           -60.451778
##########                 Gist:             0.000000
##########        Van der Waals:           -29.312759
##########  Ligand Polar Desolv:            32.910637
########## Ligand Apolar Desolv:            -6.347990
##########      Internal Energy:             0.000000
##########      Receptor Energy:             0.000000
########## Receptor Desolvation:             0.000000
########## Receptor Hydrophobic:             0.000000
##########         Total Energy:           -63.201897
##########        Ligand Charge:            -1.000000
##########            Arbitrary:    +999.9990
##########        Ligand Energy:             0.000000

@<TRIPOS>MOLECULE
 REAL300014248911      none
   49    51    -1     0     0



@<TRIPOS>ATOM
      1 C1        -43.0348   -35.5305     3.3751 C.3        1  LIG1   0.1000
      2 N1        -44.4291   -35.9800     3.3691 N.pl3      1  LIG1  -0.3600
      3 N2        -45.5591   -35.1540     3.4218 N.2        1  LIG1  -0.2800
      4 C2        -46.6283   -35.9213     3.3974 C.2        1  LIG1   0.1100
      5 C3        -48.0374   -35.4569     3.4355 C.ar       1  LIG1  -0.0100
      6 C4        -49.0347   -36.1967     2.8036 C.ar       1  LIG1  -0.0900
      7 C5        -50.3441   -35.7625     2.8458 C.ar       1  LIG1  -0.1200
      8 C6        -50.6661   -34.5911     3.5059 C.ar       1  LIG1  -0.1100
      9 C7        -49.6789   -33.8494     4.1307 C.ar       1  LIG1  -0.1200
     10 C8        -48.3670   -34.2768     4.0987 C.ar       1  LIG1  -0.0900
     11 C9        -46.1988   -37.2606     3.3227 C.2        1  LIG1  -0.2300
     12 C10       -44.8480   -37.2624     3.3124 C.2        1  LIG1   0.0700
     13 C11       -43.9642   -38.4810     3.2433 C.3        1  LIG1   0.2100
     14 N3        -44.4804   -39.4016     2.2271 N.am       1  LIG1  -0.7500
     15 C12       -43.8463   -40.5669     1.9891 C.2        1  LIG1   0.7000
     16 O1        -42.8459   -40.8540     2.6176 O.2        1  LIG1  -0.5900
     17 N4        -44.3213   -41.4137     1.0544 N.am       1  LIG1  -0.7400
     18 C13       -43.6320   -42.6804     0.7957 C.3        1  LIG1   0.1600
     19 C14       -44.2061   -43.7684     1.7055 C.3        1  LIG1  -0.1200
     20 C15       -43.4863   -45.0912     1.4353 C.3        1  LIG1  -0.0900
     21 C16       -43.6870   -45.4914    -0.0278 C.3        1  LIG1  -0.1500
     22 C17       -42.9781   -46.7944    -0.2938 C.2        1  LIG1   0.5000
     23 O2        -43.6096   -47.7653    -0.6746 O.co2      1  LIG1  -0.7100
     24 O3        -41.7730   -46.8777    -0.1283 O.co2      1  LIG1  -0.7000
     25 C18       -43.1130   -44.4035    -0.9375 C.3        1  LIG1  -0.0900
     26 C19       -43.8327   -43.0807    -0.6673 C.3        1  LIG1  -0.1200
     27 H1        -43.0041   -34.4421     3.4269 H          1  LIG1   0.0800
     28 H2        -42.5216   -35.9500     4.2405 H          1  LIG1   0.0900
     29 H3        -42.5412   -35.8649     2.4626 H          1  LIG1   0.0900
     30 H4        -48.7839   -37.1099     2.2843 H          1  LIG1   0.1300
     31 H5        -51.1185   -36.3373     2.3597 H          1  LIG1   0.1300
     32 H6        -51.6912   -34.2523     3.5334 H          1  LIG1   0.1200
     33 H7        -49.9356   -32.9348     4.6447 H          1  LIG1   0.1200
     34 H8        -47.5972   -33.6977     4.5871 H          1  LIG1   0.1300
     35 H9        -46.8363   -38.1316     3.2829 H          1  LIG1   0.1500
     36 H10       -43.9547   -38.9786     4.2130 H          1  LIG1   0.1000
     37 H11       -42.9504   -38.1800     2.9793 H          1  LIG1   0.0800
     38 H12       -45.2785   -39.1725     1.7257 H          1  LIG1   0.4000
     39 H13       -45.1194   -41.1847     0.5529 H          1  LIG1   0.3900
     40 H14       -42.5673   -42.5625     0.9974 H          1  LIG1   0.0900
     41 H15       -45.2708   -43.8863     1.5038 H          1  LIG1   0.0600
     42 H16       -44.0631   -43.4832     2.7478 H          1  LIG1   0.0600
     43 H17       -43.8953   -45.8663     2.0834 H          1  LIG1   0.0600
     44 H18       -42.4216   -44.9734     1.6369 H          1  LIG1   0.0700
     45 H19       -44.7517   -45.6093    -0.2294 H          1  LIG1   0.0600
     46 H20       -42.0484   -44.2856    -0.7358 H          1  LIG1   0.0600
     47 H21       -43.2559   -44.6886    -1.9797 H          1  LIG1   0.0600
     48 H22       -44.8975   -43.1985    -0.8690 H          1  LIG1   0.0600
     49 H23       -43.4238   -42.3055    -1.3154 H          1  LIG1   0.0600
@<TRIPOS>BOND
     1    1    2 1
     2    1   27 1
     3    1   28 1
     4    1   29 1
     5    2   12 1
     6    2    3 1
     7    3    4 2
     8    4    5 1
     9    4   11 1
    10    5   10 ar
    11    5    6 ar
    12    6    7 ar
    13    6   30 1
    14    7    8 ar
    15    7   31 1
    16    8    9 ar
    17    8   32 1
    18    9   10 ar
    19    9   33 1
    20   10   34 1
    21   11   12 2
    22   11   35 1
    23   12   13 1
    24   13   14 1
    25   13   36 1
    26   13   37 1
    27   14   15 am
    28   14   38 1
    29   15   16 2
    30   15   17 am
    31   17   18 1
    32   17   39 1
    33   18   26 1
    34   18   19 1
    35   18   40 1
    36   19   20 1
    37   19   41 1
    38   19   42 1
    39   20   21 1
    40   20   43 1
    41   20   44 1
    42   21   22 1
    43   21   25 1
    44   21   45 1
    45   22   23 2
    46   22   24 1
    47   25   26 1
    48   25   46 1
    49   25   47 1
    50   26   48 1
    51   26   49 1
##########                 Name:     REAL250003494666
##########          Protonation:                 none
##########               SMILES:   O=C([O-])[C@@H]1CCC[C@H](NC(=O)NCCC2=CC=CN=C2)C1
##########            Long Name:   NO_LONG_NAME
##########          FlexRecCode: 1
##########               Number:                 1199
##########   Ligand Source File: /mnt/nfs/exa/work/stefan/Anions/MWT-250-300/Each-pattern/BUILD/pattern1/All-chec
##########                 Rank:                    1
##########               Setnum:                   65
##########             Matchnum:                    1
##########                Cloud:                    1
##########        Electrostatic:           -75.882401
##########                 Gist:             0.000000
##########        Van der Waals:           -20.277496
##########  Ligand Polar Desolv:            36.675827
########## Ligand Apolar Desolv:            -3.755337
##########      Internal Energy:             0.000000
##########      Receptor Energy:             0.000000
########## Receptor Desolvation:             0.000000
########## Receptor Hydrophobic:             0.000000
##########         Total Energy:           -63.239407
##########        Ligand Charge:            -1.000000
##########            Arbitrary:    +999.9990
##########        Ligand Energy:             0.000000

@<TRIPOS>MOLECULE
 REAL300002429182      none
   37    40    -1     0     0



@<TRIPOS>ATOM
      1 O1        -42.2141   -45.9639    -0.1146 O.co2      1  LIG1  -0.6700
      2 C1        -42.7259   -44.9536    -0.5806 C.2        1  LIG1   0.5500
      3 O2        -42.3888   -44.5511    -1.6870 O.co2      1  LIG1  -0.6700
      4 C2        -43.7402   -44.2274     0.1846 C.2        1  LIG1  -0.1700
      5 C3        -44.3711   -43.0992    -0.2346 C.2        1  LIG1  -0.1300
      6 C4        -45.3005   -42.5761     0.6554 C.2        1  LIG1   0.0900
      7 C5        -45.4152   -43.3123     1.8247 C.2        1  LIG1  -0.2500
      8 C6        -46.3810   -42.6830     2.6357 C.2        1  LIG1  -0.0600
      9 C7        -46.8374   -41.5888     1.9645 C.2        1  LIG1  -0.0200
     10 C8        -47.8558   -40.6483     2.4534 C.2        1  LIG1   0.6000
     11 O3        -48.3654   -40.8170     3.5451 O.2        1  LIG1  -0.5300
     12 N1        -48.2250   -39.5991     1.6923 N.am       1  LIG1  -0.7300
     13 C9        -49.2400   -38.6619     2.1796 C.3        1  LIG1   0.1700
     14 C10       -48.5698   -37.5491     2.9451 C.ar       1  LIG1  -0.1200
     15 C11       -47.1978   -37.5419     3.0868 C.ar       1  LIG1  -0.0500
     16 C12       -46.5729   -36.5254     3.7879 C.ar       1  LIG1  -0.0700
     17 Cl1       -44.8454   -36.5198     3.9598 Cl         1  LIG1  -0.0600
     18 C13       -47.3311   -35.5153     4.3547 C.ar       1  LIG1  -0.0500
     19 C14       -48.7012   -35.5208     4.2127 C.ar       1  LIG1  -0.1700
     20 C15       -49.3387   -36.5326     3.5067 C.ar       1  LIG1   0.1300
     21 O4        -50.6867   -36.3423     3.4806 O.3        1  LIG1  -0.2900
     22 C16       -51.0578   -35.4308     4.5288 C.3        1  LIG1   0.0500
     23 C17       -49.7799   -34.5776     4.7092 C.3        1  LIG1  -0.1100
     24 N2        -46.1937   -41.5119     0.7530 N.pl3      1  LIG1  -0.5500
     25 S1        -44.3183   -44.6874     1.7775 S.3        1  LIG1   0.1700
     26 H1        -44.1646   -42.6419    -1.1910 H          1  LIG1   0.1400
     27 H2        -46.7015   -43.0095     3.6139 H          1  LIG1   0.1500
     28 H3        -47.8179   -39.4640     0.8222 H          1  LIG1   0.4000
     29 H4        -49.9340   -39.1865     2.8355 H          1  LIG1   0.0800
     30 H5        -49.7842   -38.2434     1.3335 H          1  LIG1   0.0800
     31 H6        -46.6082   -38.3337     2.6487 H          1  LIG1   0.1500
     32 H7        -46.8483   -34.7221     4.9063 H          1  LIG1   0.1400
     33 H8        -51.2934   -35.9718     5.4452 H          1  LIG1   0.0800
     34 H9        -51.8981   -34.8077     4.2228 H          1  LIG1   0.1100
     35 H10       -49.6245   -34.3258     5.7583 H          1  LIG1   0.1000
     36 H11       -49.8222   -33.6772     4.0965 H          1  LIG1   0.1000
     37 H12       -46.3358   -40.8287     0.0791 H          1  LIG1   0.4100
@<TRIPOS>BOND
     1    1    2 2
     2    2    3 1
     3    2    4 1
     4    4   25 1
     5    4    5 2
     6    5    6 1
     7    5   26 1
     8    6   24 1
     9    6    7 2
    10    7    8 1
    11    7   25 1
    12    8    9 2
    13    8   27 1
    14    9   10 1
    15    9   24 1
    16   10   11 2
    17   10   12 am
    18   12   13 1
    19   12   28 1
    20   13   14 1
    21   13   29 1
    22   13   30 1
    23   14   20 ar
    24   14   15 ar
    25   15   16 ar
    26   15   31 1
    27   16   17 1
    28   16   18 ar
    29   18   19 ar
    30   18   32 1
    31   19   23 1
    32   19   20 ar
    33   20   21 1
    34   21   22 1
    35   22   23 1
    36   22   33 1
    37   22   34 1
    38   23   35 1
    39   23   36 1
    40   24   37 1
##########                 Name:     REAL300021558670
##########          Protonation:                 none
##########               SMILES:   O=C(CC1=CC=C(Cl)C=C1)[N-]S(=O)(=O)C1=CC=C2OCCCC2=C1
##########            Long Name:   NO_LONG_NAME
##########          FlexRecCode: 1
##########               Number:                   16
##########   Ligand Source File: /mnt/nfs/exa/work/stefan/Anions/MWT-300-400/Each-pattern/BUILD/pattern4/All-chec
##########                 Rank:                    1
##########               Setnum:                  117
##########             Matchnum:                    1
##########                Cloud:                    1
##########        Electrostatic:           -74.227852
##########                 Gist:             0.000000
##########        Van der Waals:           -19.439556
##########  Ligand Polar Desolv:            32.805157
########## Ligand Apolar Desolv:            -2.458439
##########      Internal Energy:             0.000000
##########      Receptor Energy:             0.000000
########## Receptor Desolvation:             0.000000
########## Receptor Hydrophobic:             0.000000
##########         Total Energy:           -63.320686
##########        Ligand Charge:            -1.000000
##########            Arbitrary:    +999.9990
##########        Ligand Energy:             0.000000

@<TRIPOS>MOLECULE
 REAL300002115485      none
   38    40    -1     0     0



@<TRIPOS>ATOM
      1 O1        -43.2690   -47.6266    -1.8219 O.co2      1  LIG1  -0.7000
      2 C1        -43.0512   -46.5555    -1.2814 C.2        1  LIG1   0.5000
      3 O2        -42.0170   -45.9536    -1.5157 O.co2      1  LIG1  -0.6900
      4 C2        -44.0602   -45.9757    -0.3241 C.3        1  LIG1  -0.1800
      5 H1        -44.9391   -46.6085    -0.2008 H          1  LIG1   0.0800
      6 C3        -43.4481   -45.5057     1.0061 C.3        1  LIG1  -0.0900
      7 C4        -44.3956   -44.2972     0.9246 C.3        1  LIG1  -0.1400
      8 H2        -45.3655   -44.4706     1.3905 H          1  LIG1   0.1000
      9 C5        -43.7605   -43.0018     1.3602 C.2        1  LIG1   0.5400
     10 O3        -42.5524   -42.9022     1.4004 O.2        1  LIG1  -0.5200
     11 N1        -44.5350   -41.9540     1.7049 N.am       1  LIG1  -0.5800
     12 C6        -45.9943   -42.0745     1.6563 C.3        1  LIG1   0.1800
     13 C7        -46.5025   -42.5650     2.9875 C.2        1  LIG1  -0.1200
     14 C8        -45.6909   -42.8252     4.0135 C.2        1  LIG1  -0.2000
     15 S1        -46.6374   -43.3807     5.3881 S.3        1  LIG1   0.0800
     16 C9        -48.1268   -43.2156     4.4672 C.2        1  LIG1  -0.2100
     17 C10       -47.8472   -42.7748     3.2397 C.2        1  LIG1  -0.1100
     18 C11       -43.9453   -40.7513     2.1093 C.ar       1  LIG1   0.1400
     19 C12       -44.6019   -39.9226     3.0097 C.ar       1  LIG1  -0.1200
     20 C13       -44.0148   -38.7387     3.4108 C.ar       1  LIG1  -0.1100
     21 C14       -42.7794   -38.3727     2.9084 C.ar       1  LIG1  -0.1200
     22 C15       -42.1257   -39.1929     2.0072 C.ar       1  LIG1  -0.1100
     23 C16       -42.7048   -40.3809     1.6066 C.ar       1  LIG1  -0.1100
     24 C17       -44.3994   -44.4995    -0.5998 C.3        1  LIG1  -0.0900
     25 H3        -42.3937   -45.2397     0.9316 H          1  LIG1   0.0900
     26 H4        -43.6597   -46.1708     1.8433 H          1  LIG1   0.0600
     27 H5        -46.2745   -42.7829     0.8769 H          1  LIG1   0.0800
     28 H6        -46.4320   -41.1007     1.4367 H          1  LIG1   0.1000
     29 H7        -44.6164   -42.7162     4.0009 H          1  LIG1   0.1600
     30 H8        -49.1164   -43.4370     4.8390 H          1  LIG1   0.1600
     31 H9        -48.6118   -42.5993     2.4974 H          1  LIG1   0.1500
     32 H10       -45.5684   -40.2059     3.3992 H          1  LIG1   0.1200
     33 H11       -44.5228   -38.0958     4.1145 H          1  LIG1   0.1300
     34 H12       -42.3241   -37.4445     3.2208 H          1  LIG1   0.1200
     35 H13       -41.1610   -38.9043     1.6167 H          1  LIG1   0.1200
     36 H14       -42.1934   -41.0215     0.9033 H          1  LIG1   0.1300
     37 H15       -45.3780   -44.3534    -1.0572 H          1  LIG1   0.0600
     38 H16       -43.6056   -43.9578    -1.1141 H          1  LIG1   0.1000
@<TRIPOS>BOND
     1    1    2 2
     2    2    3 1
     3    2    4 1
     4    4    5 1
     5    4   24 1
     6    4    6 1
     7    6    7 1
     8    6   25 1
     9    6   26 1
    10    7    8 1
    11    7    9 1
    12    7   24 1
    13    9   10 2
    14    9   11 am
    15   11   12 1
    16   11   18 1
    17   12   13 1
    18   12   27 1
    19   12   28 1
    20   13   17 1
    21   13   14 2
    22   14   15 1
    23   14   29 1
    24   15   16 1
    25   16   17 2
    26   16   30 1
    27   17   31 1
    28   18   23 ar
    29   18   19 ar
    30   19   20 ar
    31   19   32 1
    32   20   21 ar
    33   20   33 1
    34   21   22 ar
    35   21   34 1
    36   22   23 ar
    37   22   35 1
    38   23   36 1
    39   24   37 1
    40   24   38 1
##########                 Name:     REAL300020160709
##########          Protonation:                 none
##########               SMILES:   O=C(CCC1=NN=N[N-]1)NC1=CC=CC(SC2=CC=CC=C2)=C1
##########            Long Name:   NO_LONG_NAME
##########          FlexRecCode: 1
##########               Number:                13792
##########   Ligand Source File: /mnt/nfs/exa/work/stefan/Anions/MWT-300-400/Each-pattern/BUILD/pattern3/All-chec
##########                 Rank:                    1
##########               Setnum:                   38
##########             Matchnum:                    1
##########                Cloud:                    1
##########        Electrostatic:           -65.546761
##########                 Gist:             0.000000
##########        Van der Waals:           -21.032459
##########  Ligand Polar Desolv:            28.905239
########## Ligand Apolar Desolv:            -5.804875
##########      Internal Energy:             0.000000
##########      Receptor Energy:             0.000000
########## Receptor Desolvation:             0.000000
########## Receptor Hydrophobic:             0.000000
##########         Total Energy:           -63.478859
##########        Ligand Charge:            -1.000000
##########            Arbitrary:    +999.9990
##########        Ligand Energy:             0.000000

@<TRIPOS>MOLECULE
 REAL300008698853      none
   35    36    -1     0     0



@<TRIPOS>ATOM
      1 C1        -43.1108   -45.8367     1.5690 C.3        1  LIG1  -0.1100
      2 C2        -43.4300   -45.0552     0.2930 C.3        1  LIG1  -0.1400
      3 C3        -42.7390   -45.6795    -0.8918 C.2        1  LIG1   0.5100
      4 O1        -42.0445   -46.6702    -0.7401 O.co2      1  LIG1  -0.6900
      5 O2        -42.8744   -45.1942    -2.0020 O.co2      1  LIG1  -0.6900
      6 C4        -44.9545   -45.0071     0.0607 C.3        1  LIG1  -0.1200
      7 C5        -45.3157   -43.5064     0.0944 C.3        1  LIG1   0.0900
      8 N1        -44.2344   -42.8767     0.8876 N.am       1  LIG1  -0.6100
      9 C6        -44.3453   -41.8923     1.8014 C.2        1  LIG1   0.5100
     10 O3        -43.3575   -41.4800     2.3715 O.2        1  LIG1  -0.5400
     11 C7        -45.6968   -41.3038     2.1147 C.3        1  LIG1   0.1400
     12 O4        -45.5430   -39.9371     2.5027 O.3        1  LIG1  -0.5300
     13 C8        -46.3325   -42.0772     3.2413 C.ar       1  LIG1  -0.1000
     14 C9        -47.5842   -41.7185     3.7052 C.ar       1  LIG1  -0.0800
     15 C10       -48.1703   -42.4302     4.7354 C.ar       1  LIG1  -0.1000
     16 C11       -47.5000   -43.4954     5.3088 C.ar       1  LIG1  -0.0100
     17 Cl1       -48.2326   -44.3853     6.6068 Cl         1  LIG1  -0.0400
     18 C12       -46.2439   -43.8513     4.8473 C.ar       1  LIG1  -0.0800
     19 Br1       -45.3257   -45.3070     5.6309 Br         1  LIG1  -0.0200
     20 C13       -45.6610   -43.1414     3.8138 C.ar       1  LIG1  -0.0600
     21 C14       -43.0035   -43.5794     0.4466 C.3        1  LIG1   0.1300
     22 H1        -43.4172   -46.8754     1.4451 H          1  LIG1   0.0500
     23 H2        -42.0388   -45.7948     1.7622 H          1  LIG1   0.0600
     24 H3        -43.6487   -45.3968     2.4087 H          1  LIG1   0.0400
     25 H4        -45.4759   -45.5403     0.8557 H          1  LIG1   0.0600
     26 H5        -45.2053   -45.4355    -0.9097 H          1  LIG1   0.1000
     27 H6        -45.3338   -43.0971    -0.9157 H          1  LIG1   0.0800
     28 H7        -46.2797   -43.3583     0.5810 H          1  LIG1   0.0700
     29 H8        -46.3320   -41.3614     1.2308 H          1  LIG1   0.1300
     30 H9        -45.1391   -39.3787     1.8243 H          1  LIG1   0.3800
     31 H10       -48.1062   -40.8844     3.2601 H          1  LIG1   0.1400
     32 H11       -49.1498   -42.1518     5.0951 H          1  LIG1   0.1500
     33 H12       -44.6813   -43.4186     3.4535 H          1  LIG1   0.1500
     34 H13       -42.2221   -43.4861     1.2009 H          1  LIG1   0.0800
     35 H14       -42.6605   -43.1814    -0.5085 H          1  LIG1   0.0700
@<TRIPOS>BOND
     1    1    2 1
     2    1   22 1
     3    1   23 1
     4    1   24 1
     5    2   21 1
     6    2    3 1
     7    2    6 1
     8    3    4 2
     9    3    5 1
    10    6    7 1
    11    6   25 1
    12    6   26 1
    13    7    8 1
    14    7   27 1
    15    7   28 1
    16    8    9 am
    17    8   21 1
    18    9   10 2
    19    9   11 1
    20   11   12 1
    21   11   13 1
    22   11   29 1
    23   12   30 1
    24   13   20 ar
    25   13   14 ar
    26   14   15 ar
    27   14   31 1
    28   15   16 ar
    29   15   32 1
    30   16   17 1
    31   16   18 ar
    32   18   19 1
    33   18   20 ar
    34   20   33 1
    35   21   34 1
    36   21   35 1
##########                 Name:     REAL300003674361
##########          Protonation:                 none
##########               SMILES:   CC1=CC2=NC=C(C(=O)N3CC(CC(=O)[O-])C4=CC=CC=C43)C=C2C=C1
##########            Long Name:   NO_LONG_NAME
##########          FlexRecCode: 1
##########               Number:                 5722
##########   Ligand Source File: /mnt/nfs/exa/work/stefan/Anions/MWT-300-400/Each-pattern/BUILD/pattern1/All-chec
##########                 Rank:                    1
##########               Setnum:                   21
##########             Matchnum:                    1
##########                Cloud:                    1
##########        Electrostatic:           -67.884293
##########                 Gist:             0.000000
##########        Van der Waals:           -23.119713
##########  Ligand Polar Desolv:            36.920891
########## Ligand Apolar Desolv:            -8.259103
##########      Internal Energy:             0.000000
##########      Receptor Energy:             0.000000
########## Receptor Desolvation:             0.000000
########## Receptor Hydrophobic:             0.000000
##########         Total Energy:           -62.342216
##########        Ligand Charge:            -1.000000
##########            Arbitrary:    +999.9990
##########        Ligand Energy:             0.000000

@<TRIPOS>MOLECULE
 REAL300001804705      none
   35    36    -1     0     0



@<TRIPOS>ATOM
      1 C1        -43.1108   -45.8367     1.5690 C.3        1  LIG1  -0.1100
      2 C2        -43.4300   -45.0552     0.2930 C.3        1  LIG1  -0.1400
      3 C3        -42.7390   -45.6795    -0.8918 C.2        1  LIG1   0.5100
      4 O1        -42.0445   -46.6702    -0.7401 O.co2      1  LIG1  -0.6900
      5 O2        -42.8744   -45.1942    -2.0020 O.co2      1  LIG1  -0.6900
      6 C4        -44.9545   -45.0071     0.0607 C.3        1  LIG1  -0.1200
      7 C5        -45.3157   -43.5064     0.0944 C.3        1  LIG1   0.0900
      8 N1        -44.2344   -42.8767     0.8876 N.am       1  LIG1  -0.6100
      9 C6        -44.3453   -41.8923     1.8014 C.2        1  LIG1   0.5100
     10 O3        -43.3575   -41.4800     2.3715 O.2        1  LIG1  -0.5400
     11 C7        -45.6968   -41.3038     2.1147 C.3        1  LIG1   0.1400
     12 O4        -45.5430   -39.9371     2.5027 O.3        1  LIG1  -0.5300
     13 C8        -46.3325   -42.0772     3.2413 C.ar       1  LIG1  -0.1000
     14 C9        -47.5842   -41.7185     3.7052 C.ar       1  LIG1  -0.0800
     15 C10       -48.1703   -42.4302     4.7354 C.ar       1  LIG1  -0.1000
     16 C11       -47.5000   -43.4954     5.3088 C.ar       1  LIG1  -0.0100
     17 Cl1       -48.2326   -44.3853     6.6068 Cl         1  LIG1  -0.0400
     18 C12       -46.2439   -43.8513     4.8473 C.ar       1  LIG1  -0.0800
     19 Br1       -45.3257   -45.3070     5.6309 Br         1  LIG1  -0.0200
     20 C13       -45.6610   -43.1414     3.8138 C.ar       1  LIG1  -0.0600
     21 C14       -43.0035   -43.5794     0.4466 C.3        1  LIG1   0.1300
     22 H1        -43.4172   -46.8754     1.4451 H          1  LIG1   0.0500
     23 H2        -42.0388   -45.7948     1.7622 H          1  LIG1   0.0600
     24 H3        -43.6487   -45.3968     2.4087 H          1  LIG1   0.0400
     25 H4        -45.4759   -45.5403     0.8557 H          1  LIG1   0.0600
     26 H5        -45.2053   -45.4355    -0.9097 H          1  LIG1   0.1000
     27 H6        -45.3338   -43.0971    -0.9157 H          1  LIG1   0.0800
     28 H7        -46.2797   -43.3583     0.5810 H          1  LIG1   0.0700
     29 H8        -46.3320   -41.3614     1.2308 H          1  LIG1   0.1300
     30 H9        -45.1391   -39.3787     1.8243 H          1  LIG1   0.3800
     31 H10       -48.1062   -40.8844     3.2601 H          1  LIG1   0.1400
     32 H11       -49.1498   -42.1518     5.0951 H          1  LIG1   0.1500
     33 H12       -44.6813   -43.4186     3.4535 H          1  LIG1   0.1500
     34 H13       -42.2221   -43.4861     1.2009 H          1  LIG1   0.0800
     35 H14       -42.6605   -43.1814    -0.5085 H          1  LIG1   0.0700
@<TRIPOS>BOND
     1    1    2 1
     2    1   22 1
     3    1   23 1
     4    1   24 1
     5    2   21 1
     6    2    3 1
     7    2    6 1
     8    3    4 2
     9    3    5 1
    10    6    7 1
    11    6   25 1
    12    6   26 1
    13    7    8 1
    14    7   27 1
    15    7   28 1
    16    8    9 am
    17    8   21 1
    18    9   10 2
    19    9   11 1
    20   11   12 1
    21   11   13 1
    22   11   29 1
    23   12   30 1
    24   13   20 ar
    25   13   14 ar
    26   14   15 ar
    27   14   31 1
    28   15   16 ar
    29   15   32 1
    30   16   17 1
    31   16   18 ar
    32   18   19 1
    33   18   20 ar
    34   20   33 1
    35   21   34 1
    36   21   35 1
##########                 Name:     REAL250003880435
##########          Protonation:                 none
##########               SMILES:   CCCOC1=CN=CC(C2=CSC(CC(=O)[O-])=C2)=C1
##########            Long Name:   NO_LONG_NAME
##########          FlexRecCode: 1
##########               Number:                  884
##########   Ligand Source File: /mnt/nfs/exa/work/stefan/Anions/MWT-250-300/Each-pattern/BUILD/pattern1/All-chec
##########                 Rank:                    1
##########               Setnum:                   74
##########             Matchnum:                    1
##########                Cloud:                    1
##########        Electrostatic:           -65.299454
##########                 Gist:             0.000000
##########        Van der Waals:           -23.795210
##########  Ligand Polar Desolv:            31.937351
########## Ligand Apolar Desolv:            -5.412383
##########      Internal Energy:             0.000000
##########      Receptor Energy:             0.000000
########## Receptor Desolvation:             0.000000
########## Receptor Hydrophobic:             0.000000
##########         Total Energy:           -62.569695
##########        Ligand Charge:            -1.000000
##########            Arbitrary:    +999.9990
##########        Ligand Energy:             0.000000

@<TRIPOS>MOLECULE
 REAL300011289329      none
   39    41    -1     0     0



@<TRIPOS>ATOM
      1 C1        -42.7505   -37.9800     1.9415 C.3        1  LIG1   0.0200
      2 O1        -43.4518   -38.0361     3.1852 O.3        1  LIG1  -0.3000
      3 C2        -44.8033   -37.8997     3.1381 C.ar       1  LIG1   0.1500
      4 C3        -45.3778   -36.6406     3.2291 C.ar       1  LIG1  -0.1900
      5 C4        -46.7528   -36.5047     3.1861 C.ar       1  LIG1  -0.0700
      6 C5        -47.5549   -37.6227     3.0485 C.ar       1  LIG1  -0.0700
      7 Cl1       -49.2813   -37.4490     2.9956 Cl         1  LIG1  -0.0700
      8 C6        -46.9834   -38.8793     2.9532 C.ar       1  LIG1  -0.0700
      9 C7        -45.6099   -39.0194     2.9951 C.ar       1  LIG1  -0.1000
     10 C8        -44.9882   -40.3884     2.8919 C.3        1  LIG1   0.2600
     11 N1        -44.7255   -40.7005     1.4849 N.pl3      1  LIG1  -0.7000
     12 C9        -44.1558   -41.9063     1.1419 C.2        1  LIG1   0.2700
     13 N2        -43.8145   -42.8347     1.9911 N.2        1  LIG1  -0.5400
     14 C10       -43.2843   -43.9257     1.5055 C.2        1  LIG1   0.0900
     15 C11       -43.1649   -43.9272     0.1398 C.2        1  LIG1  -0.2700
     16 C12       -42.6299   -44.9703    -0.6485 C.2        1  LIG1   0.5500
     17 O2        -42.2187   -45.9936    -0.1135 O.co2      1  LIG1  -0.6800
     18 O3        -42.5766   -44.8522    -1.8672 O.co2      1  LIG1  -0.6900
     19 S1        -43.8045   -42.3976    -0.4568 S.3        1  LIG1   0.1300
     20 C13       -45.9320   -41.4133     3.4661 C.ar       1  LIG1  -0.0800
     21 C14       -45.8624   -41.7426     4.8068 C.ar       1  LIG1  -0.1000
     22 C15       -46.7313   -42.6793     5.3345 C.ar       1  LIG1  -0.1200
     23 C16       -47.6631   -43.2941     4.5192 C.ar       1  LIG1  -0.1200
     24 C17       -47.7289   -42.9691     3.1773 C.ar       1  LIG1  -0.1200
     25 C18       -46.8635   -42.0286     2.6508 C.ar       1  LIG1  -0.0900
     26 H1        -41.6822   -38.1021     2.1208 H          1  LIG1   0.0600
     27 H2        -43.1030   -38.7791     1.2891 H          1  LIG1   0.0600
     28 H3        -42.9311   -37.0162     1.4656 H          1  LIG1   0.1000
     29 H4        -44.7515   -35.7673     3.3374 H          1  LIG1   0.1400
     30 H5        -47.1999   -35.5243     3.2608 H          1  LIG1   0.1400
     31 H6        -47.6117   -39.7512     2.8457 H          1  LIG1   0.1400
     32 H7        -44.0513   -40.4048     3.4489 H          1  LIG1   0.1100
     33 H8        -44.9490   -40.0562     0.7951 H          1  LIG1   0.4100
     34 H9        -42.9679   -44.7521     2.1246 H          1  LIG1   0.1800
     35 H10       -45.1317   -41.2651     5.4429 H          1  LIG1   0.1100
     36 H11       -46.6797   -42.9334     6.3829 H          1  LIG1   0.1200
     37 H12       -48.3395   -44.0287     4.9308 H          1  LIG1   0.1200
     38 H13       -48.4566   -43.4498     2.5403 H          1  LIG1   0.1200
     39 H14       -46.9148   -41.7747     1.6022 H          1  LIG1   0.1200
@<TRIPOS>BOND
     1    1    2 1
     2    1   26 1
     3    1   27 1
     4    1   28 1
     5    2    3 1
     6    3    9 ar
     7    3    4 ar
     8    4    5 ar
     9    4   29 1
    10    5    6 ar
    11    5   30 1
    12    6    7 1
    13    6    8 ar
    14    8    9 ar
    15    8   31 1
    16    9   10 1
    17   10   11 1
    18   10   20 1
    19   10   32 1
    20   11   12 1
    21   11   33 1
    22   12   19 1
    23   12   13 2
    24   13   14 1
    25   14   15 2
    26   14   34 1
    27   15   16 1
    28   15   19 1
    29   16   17 2
    30   16   18 1
    31   20   25 ar
    32   20   21 ar
    33   21   22 ar
    34   21   35 1
    35   22   23 ar
    36   22   36 1
    37   23   24 ar
    38   23   37 1
    39   24   25 ar
    40   24   38 1
    41   25   39 1
##########                 Name:     REAL300015579672
##########          Protonation:                 none
##########               SMILES:   CC1=NC(C(=O)NC2=CC=CC(CC(=O)[O-])=C2)=C(C2=CC=CC=C2)O1
##########            Long Name:   NO_LONG_NAME
##########          FlexRecCode: 1
##########               Number:                 6442
##########   Ligand Source File: /mnt/nfs/exa/work/stefan/Anions/MWT-300-400/Each-pattern/BUILD/pattern1/All-chec
##########                 Rank:                    1
##########               Setnum:                  104
##########             Matchnum:                    1
##########                Cloud:                    1
##########        Electrostatic:           -73.256195
##########                 Gist:             0.000000
##########        Van der Waals:           -23.282591
##########  Ligand Polar Desolv:            40.092495
########## Ligand Apolar Desolv:            -5.646720
##########      Internal Energy:             0.000000
##########      Receptor Energy:             0.000000
########## Receptor Desolvation:             0.000000
########## Receptor Hydrophobic:             0.000000
##########         Total Energy:           -62.093014
##########        Ligand Charge:            -1.000000
##########            Arbitrary:    +999.9990
##########        Ligand Energy:             0.000000

@<TRIPOS>MOLECULE
 REAL300003425649      none
   43    45    -1     0     0



@<TRIPOS>ATOM
      1 C1        -42.6090   -38.9953    -4.5523 C.3        1  LIG1  -0.1200
      2 C2        -42.0659   -39.7930    -3.3947 C.ar       1  LIG1  -0.0700
      3 C3        -42.3869   -39.4359    -2.0984 C.ar       1  LIG1  -0.1100
      4 C4        -41.8886   -40.1675    -1.0367 C.ar       1  LIG1  -0.0400
      5 C5        -42.2382   -39.7782     0.3767 C.3        1  LIG1  -0.1200
      6 C6        -43.0481   -40.7884     1.1476 C.2        1  LIG1   0.5600
      7 O1        -42.6072   -41.2647     2.1721 O.2        1  LIG1  -0.5400
      8 N1        -44.2626   -41.1625     0.6987 N.am       1  LIG1  -0.7000
      9 C7        -45.0500   -42.1446     1.4482 C.3        1  LIG1   0.2400
     10 C8        -46.5398   -41.9014     1.1988 C.3        1  LIG1  -0.1500
     11 C9        -44.6848   -43.5341     0.9931 C.2        1  LIG1  -0.0300
     12 N2        -44.7301   -44.5901     1.7405 N.2        1  LIG1  -0.4600
     13 C10       -44.3816   -45.7286     1.1989 C.2        1  LIG1   0.0400
     14 C11       -44.0106   -45.6273    -0.1157 C.2        1  LIG1  -0.2300
     15 C12       -43.5746   -46.7253    -0.9763 C.2        1  LIG1   0.5500
     16 O2        -43.5161   -47.8653    -0.5323 O.co2      1  LIG1  -0.6700
     17 O3        -43.2679   -46.5054    -2.1415 O.co2      1  LIG1  -0.6800
     18 S1        -44.1605   -43.9351    -0.5835 S.3        1  LIG1   0.1800
     19 C13       -41.2134   -38.9514     1.1558 C.3        1  LIG1  -0.1300
     20 C14       -42.5042   -38.2976     0.6562 C.3        1  LIG1  -0.1500
     21 C15       -41.0652   -41.2530    -1.2709 C.ar       1  LIG1  -0.1200
     22 C16       -40.7486   -41.6130    -2.5674 C.ar       1  LIG1  -0.0800
     23 C17       -39.8556   -42.7998    -2.8231 C.3        1  LIG1  -0.1100
     24 C18       -41.2472   -40.8818    -3.6292 C.ar       1  LIG1  -0.1200
     25 H1        -43.2289   -38.1824    -4.1743 H          1  LIG1   0.0800
     26 H2        -41.7814   -38.5831    -5.1295 H          1  LIG1   0.0700
     27 H3        -43.2095   -39.6437    -5.1903 H          1  LIG1   0.0700
     28 H4        -43.0264   -38.5853    -1.9152 H          1  LIG1   0.1200
     29 H5        -44.6153   -40.7815    -0.1206 H          1  LIG1   0.4100
     30 H6        -44.8387   -42.0437     2.5127 H          1  LIG1   0.1000
     31 H7        -47.1256   -42.6321     1.7564 H          1  LIG1   0.0700
     32 H8        -46.7512   -42.0023     0.1342 H          1  LIG1   0.0700
     33 H9        -46.8040   -40.8965     1.5280 H          1  LIG1   0.0700
     34 H10       -44.3855   -46.6636     1.7395 H          1  LIG1   0.1800
     35 H11       -41.1250   -39.1382     2.2259 H          1  LIG1   0.1100
     36 H12       -40.2864   -38.6887     0.6459 H          1  LIG1   0.1000
     37 H13       -42.4259   -37.6051    -0.1819 H          1  LIG1   0.1100
     38 H14       -43.2650   -38.0543     1.3979 H          1  LIG1   0.1000
     39 H15       -40.6724   -41.8219    -0.4412 H          1  LIG1   0.1200
     40 H16       -39.7201   -42.9278    -3.8970 H          1  LIG1   0.0700
     41 H17       -38.8868   -42.6337    -2.3519 H          1  LIG1   0.0600
     42 H18       -40.3139   -43.6962    -2.4054 H          1  LIG1   0.0700
     43 H19       -40.9968   -41.1609    -4.6420 H          1  LIG1   0.1200
@<TRIPOS>BOND
     1    1    2 1
     2    1   25 1
     3    1   26 1
     4    1   27 1
     5    2   24 ar
     6    2    3 ar
     7    3    4 ar
     8    3   28 1
     9    4    5 1
    10    4   21 ar
    11    5   20 1
    12    5    6 1
    13    5   19 1
    14    6    7 2
    15    6    8 am
    16    8    9 1
    17    8   29 1
    18    9   10 1
    19    9   11 1
    20    9   30 1
    21   10   31 1
    22   10   32 1
    23   10   33 1
    24   11   18 1
    25   11   12 2
    26   12   13 1
    27   13   14 2
    28   13   34 1
    29   14   15 1
    30   14   18 1
    31   15   16 2
    32   15   17 1
    33   19   20 1
    34   19   35 1
    35   19   36 1
    36   20   37 1
    37   20   38 1
    38   21   22 ar
    39   21   39 1
    40   22   23 1
    41   22   24 ar
    42   23   40 1
    43   23   41 1
    44   23   42 1
    45   24   43 1
##########                 Name:     REAL300013598377
##########          Protonation:                 none
##########               SMILES:   O=C([O-])CC(CNC(=O)NCC1=NNC(C2=CC=C(F)C=C2)=N1)C1CC1
##########            Long Name:   NO_LONG_NAME
##########          FlexRecCode: 1
##########               Number:                 7134
##########   Ligand Source File: /mnt/nfs/exa/work/stefan/Anions/MWT-300-400/Each-pattern/BUILD/pattern1/All-chec
##########                 Rank:                    1
##########               Setnum:                  194
##########             Matchnum:                    1
##########                Cloud:                    1
##########        Electrostatic:           -65.737297
##########                 Gist:             0.000000
##########        Van der Waals:           -30.755939
##########  Ligand Polar Desolv:            39.115971
########## Ligand Apolar Desolv:            -4.494723
##########      Internal Energy:             0.000000
##########      Receptor Energy:             0.000000
########## Receptor Desolvation:             0.000000
########## Receptor Hydrophobic:             0.000000
##########         Total Energy:           -61.871994
##########        Ligand Charge:            -1.000000
##########            Arbitrary:    +999.9990
##########        Ligand Energy:             0.000000

@<TRIPOS>MOLECULE
 REAL300000160607      none
   40    43    -1     0     0



@<TRIPOS>ATOM
      1 O1        -42.7861   -47.5155    -0.0942 O.co2      1  LIG1  -0.6900
      2 C1        -42.8416   -46.3423    -0.4373 C.2        1  LIG1   0.5200
      3 O2        -42.2112   -45.9599    -1.4140 O.co2      1  LIG1  -0.6700
      4 C2        -43.6656   -45.3920     0.3238 C.ar       1  LIG1  -0.1400
      5 C3        -43.7294   -44.0491    -0.0676 C.ar       1  LIG1  -0.0700
      6 C4        -44.4970   -43.1663     0.6334 C.ar       1  LIG1  -0.1100
      7 C5        -45.2173   -43.5929     1.7558 C.ar       1  LIG1  -0.0300
      8 C6        -46.0400   -42.6304     2.5119 C.2        1  LIG1   0.0900
      9 C7        -46.3149   -42.6922     3.8602 C.2        1  LIG1  -0.2200
     10 C8        -47.1183   -41.5907     4.1634 C.2        1  LIG1  -0.1500
     11 C9        -47.3123   -40.8996     2.9810 C.2        1  LIG1  -0.0300
     12 C10       -48.0710   -39.7164     2.8277 C.2        1  LIG1   0.0500
     13 C11       -47.4756   -38.5039     2.9729 C.2        1  LIG1  -0.2200
     14 C12       -48.3437   -37.2832     3.0887 C.3        1  LIG1  -0.0600
     15 S1        -47.5990   -36.1132     4.2584 S.3        1  LIG1  -0.0900
     16 C13       -45.9221   -36.0482     3.7200 C.ar       1  LIG1  -0.0700
     17 C14       -45.1938   -34.8733     3.8511 C.ar       1  LIG1  -0.0700
     18 C15       -43.8810   -34.8237     3.4277 C.ar       1  LIG1  -0.1200
     19 C16       -43.2834   -35.9448     2.8689 C.ar       1  LIG1   0.1000
     20 F1        -41.9981   -35.8853     2.4574 F          1  LIG1  -0.1300
     21 C17       -43.9931   -37.1191     2.7314 C.ar       1  LIG1  -0.0900
     22 C18       -45.3247   -37.1863     3.1568 C.ar       1  LIG1  -0.1200
     23 C19       -46.0739   -38.4417     3.0086 C.2        1  LIG1   0.4100
     24 O3        -45.4460   -39.4813     2.9067 O.2        1  LIG1  -0.4200
     25 O4        -46.6488   -41.5454     2.0004 O.3        1  LIG1  -0.1300
     26 C20       -45.1625   -44.9292     2.1569 C.ar       1  LIG1  -0.1400
     27 C21       -44.3899   -45.8297     1.4456 C.ar       1  LIG1   0.1400
     28 O5        -44.3321   -47.1293     1.8290 O.3        1  LIG1  -0.4700
     29 H1        -43.1728   -43.7124    -0.9297 H          1  LIG1   0.1400
     30 H2        -44.5462   -42.1327     0.3240 H          1  LIG1   0.1200
     31 H3        -45.9707   -43.4465     4.5523 H          1  LIG1   0.1500
     32 H4        -47.5142   -41.3301     5.1338 H          1  LIG1   0.1500
     33 H5        -49.1241   -39.7765     2.5953 H          1  LIG1   0.1600
     34 H6        -49.3319   -37.5736     3.4457 H          1  LIG1   0.1300
     35 H7        -48.4358   -36.8099     2.1112 H          1  LIG1   0.1100
     36 H8        -45.6547   -33.9982     4.2850 H          1  LIG1   0.1500
     37 H9        -43.3167   -33.9088     3.5315 H          1  LIG1   0.1500
     38 H10       -43.5209   -37.9872     2.2958 H          1  LIG1   0.1500
     39 H11       -45.7219   -45.2591     3.0198 H          1  LIG1   0.1200
     40 H12       -44.8637   -47.3329     2.6106 H          1  LIG1   0.3900
@<TRIPOS>BOND
     1    1    2 2
     2    2    3 1
     3    2    4 1
     4    4   27 ar
     5    4    5 ar
     6    5    6 ar
     7    5   29 1
     8    6    7 ar
     9    6   30 1
    10    7    8 1
    11    7   26 ar
    12    8   25 1
    13    8    9 2
    14    9   10 1
    15    9   31 1
    16   10   11 2
    17   10   32 1
    18   11   12 1
    19   11   25 1
    20   12   13 2
    21   12   33 1
    22   13   23 1
    23   13   14 1
    24   14   15 1
    25   14   34 1
    26   14   35 1
    27   15   16 1
    28   16   22 ar
    29   16   17 ar
    30   17   18 ar
    31   17   36 1
    32   18   19 ar
    33   18   37 1
    34   19   20 1
    35   19   21 ar
    36   21   22 ar
    37   21   38 1
    38   22   23 1
    39   23   24 2
    40   26   27 ar
    41   26   39 1
    42   27   28 1
    43   28   40 1
##########                 Name:     REAL300001820404
##########          Protonation:                 none
##########               SMILES:   O=C([O-])CN(C(=O)CSC1=CC=C(F)C(F)=C1)C1CC1
##########            Long Name:   NO_LONG_NAME
##########          FlexRecCode: 1
##########               Number:                 1026
##########   Ligand Source File: /mnt/nfs/exa/work/stefan/Anions/MWT-300-400/Each-pattern/BUILD/pattern1/All-chec
##########                 Rank:                    1
##########               Setnum:                   62
##########             Matchnum:                    1
##########                Cloud:                    1
##########        Electrostatic:           -72.268211
##########                 Gist:             0.000000
##########        Van der Waals:           -14.689316
##########  Ligand Polar Desolv:            32.809166
########## Ligand Apolar Desolv:            -6.775871
##########      Internal Energy:             0.000000
##########      Receptor Energy:             0.000000
########## Receptor Desolvation:             0.000000
########## Receptor Hydrophobic:             0.000000
##########         Total Energy:           -60.924232
##########        Ligand Charge:            -1.000000
##########            Arbitrary:    +999.9990
##########        Ligand Energy:             0.000000

@<TRIPOS>MOLECULE
 REAL300020042560      none
   37    40    -1     0     0



@<TRIPOS>ATOM
      1 O1        -42.6992   -40.6644     2.5707 O.2        1  LIG1  -0.5100
      2 C1        -43.4368   -39.7586     2.2442 C.2        1  LIG1   0.5600
      3 N1        -44.6742   -40.0296     1.7840 N.am       1  LIG1  -0.6500
      4 C2        -45.1079   -41.3561     1.6829 C.ar       1  LIG1   0.1500
      5 C3        -46.2285   -41.7769     2.3878 C.ar       1  LIG1  -0.1700
      6 C4        -46.6576   -43.0866     2.2880 C.ar       1  LIG1  -0.0800
      7 C5        -45.9743   -43.9813     1.4876 C.ar       1  LIG1  -0.1700
      8 C6        -44.8530   -43.5666     0.7799 C.ar       1  LIG1   0.2200
      9 N2        -44.1602   -44.4751    -0.0317 N.am       1  LIG1  -0.4500
     10 N3        -44.7121   -45.5712    -0.7057 N.2        1  LIG1  -0.1000
     11 N4        -43.8205   -46.1596    -1.3287 N.2        1  LIG1  -0.0500
     12 N5        -42.6007   -45.5039    -1.1214 N.2        1  LIG1  -0.5100
     13 C7        -42.8392   -44.4499    -0.3115 C.2        1  LIG1   0.5600
     14 O2        -42.0238   -43.6388     0.0897 O.2        1  LIG1  -0.6100
     15 C8        -44.4227   -42.2514     0.8737 C.ar       1  LIG1  -0.1700
     16 C9        -42.9696   -38.3300     2.3531 C.3        1  LIG1  -0.1200
     17 C10       -43.8446   -37.4211     3.1772 C.ar       1  LIG1   0.1600
     18 C11       -43.6089   -37.2908     4.5325 C.ar       1  LIG1  -0.1500
     19 C12       -44.4199   -36.4519     5.2818 C.ar       1  LIG1  -0.0700
     20 C13       -45.4418   -35.7728     4.6367 C.ar       1  LIG1  -0.1700
     21 C14       -45.6169   -35.9529     3.2775 C.ar       1  LIG1   0.1000
     22 N6        -44.8263   -36.7589     2.5965 N.ar       1  LIG1  -0.4700
     23 C15       -41.4605   -38.0805     2.3883 C.3        1  LIG1  -0.1300
     24 C16       -42.2660   -37.7222     1.1378 C.3        1  LIG1  -0.1300
     25 H1        -45.2640   -39.3053     1.5229 H          1  LIG1   0.4100
     26 H2        -46.7649   -41.0798     3.0142 H          1  LIG1   0.1500
     27 H3        -47.5288   -43.4115     2.8374 H          1  LIG1   0.1300
     28 H4        -46.3120   -45.0044     1.4119 H          1  LIG1   0.1500
     29 H5        -43.5536   -41.9256     0.3214 H          1  LIG1   0.1300
     30 H6        -42.8035   -37.8356     5.0023 H          1  LIG1   0.1400
     31 H7        -44.2617   -36.3338     6.3436 H          1  LIG1   0.1400
     32 H8        -46.0929   -35.1115     5.1890 H          1  LIG1   0.1400
     33 H9        -46.4106   -35.4272     2.7672 H          1  LIG1   0.1600
     34 H10       -41.1006   -37.2589     3.0076 H          1  LIG1   0.1100
     35 H11       -40.8052   -38.9498     2.3328 H          1  LIG1   0.1000
     36 H12       -42.1408   -38.3558     0.2599 H          1  LIG1   0.1100
     37 H13       -42.4361   -36.6650     0.9344 H          1  LIG1   0.1000
@<TRIPOS>BOND
     1    1    2 2
     2    2    3 am
     3    2   16 1
     4    3    4 1
     5    3   25 1
     6    4   15 ar
     7    4    5 ar
     8    5    6 ar
     9    5   26 1
    10    6    7 ar
    11    6   27 1
    12    7    8 ar
    13    7   28 1
    14    8    9 1
    15    8   15 ar
    16    9   13 am
    17    9   10 1
    18   10   11 2
    19   11   12 1
    20   12   13 1
    21   13   14 2
    22   15   29 1
    23   16   24 1
    24   16   17 1
    25   16   23 1
    26   17   22 ar
    27   17   18 ar
    28   18   19 ar
    29   18   30 1
    30   19   20 ar
    31   19   31 1
    32   20   21 ar
    33   20   32 1
    34   21   22 ar
    35   21   33 1
    36   23   24 1
    37   23   34 1
    38   23   35 1
    39   24   36 1
    40   24   37 1
##########                 Name:     REAL250001046808
##########          Protonation:                 none
##########               SMILES:   CC(C(=O)NC(CC1=CC=NC=C1)C(=O)[O-])C1CCCC1
##########            Long Name:   NO_LONG_NAME
##########          FlexRecCode: 1
##########               Number:                 1363
##########   Ligand Source File: /mnt/nfs/exa/work/stefan/Anions/MWT-250-300/Each-pattern/BUILD/pattern1/All-chec
##########                 Rank:                    1
##########               Setnum:                    7
##########             Matchnum:                    1
##########                Cloud:                    1
##########        Electrostatic:           -72.159363
##########                 Gist:             0.000000
##########        Van der Waals:           -20.994005
##########  Ligand Polar Desolv:            38.660332
########## Ligand Apolar Desolv:            -5.786090
##########      Internal Energy:             0.000000
##########      Receptor Energy:             0.000000
########## Receptor Desolvation:             0.000000
########## Receptor Hydrophobic:             0.000000
##########         Total Energy:           -60.279125
##########        Ligand Charge:            -1.000000
##########            Arbitrary:    +999.9990
##########        Ligand Energy:             0.000000

@<TRIPOS>MOLECULE
 REAL300019966881      none
   37    40    -1     0     0



@<TRIPOS>ATOM
      1 O1        -42.6992   -40.6644     2.5707 O.2        1  LIG1  -0.5100
      2 C1        -43.4368   -39.7586     2.2442 C.2        1  LIG1   0.5600
      3 N1        -44.6742   -40.0296     1.7840 N.am       1  LIG1  -0.6500
      4 C2        -45.1079   -41.3561     1.6829 C.ar       1  LIG1   0.1500
      5 C3        -46.2285   -41.7769     2.3878 C.ar       1  LIG1  -0.1700
      6 C4        -46.6576   -43.0866     2.2880 C.ar       1  LIG1  -0.0800
      7 C5        -45.9743   -43.9813     1.4876 C.ar       1  LIG1  -0.1700
      8 C6        -44.8530   -43.5666     0.7799 C.ar       1  LIG1   0.2200
      9 N2        -44.1602   -44.4751    -0.0317 N.am       1  LIG1  -0.4500
     10 N3        -44.7121   -45.5712    -0.7057 N.2        1  LIG1  -0.1000
     11 N4        -43.8205   -46.1596    -1.3287 N.2        1  LIG1  -0.0500
     12 N5        -42.6007   -45.5039    -1.1214 N.2        1  LIG1  -0.5100
     13 C7        -42.8392   -44.4499    -0.3115 C.2        1  LIG1   0.5600
     14 O2        -42.0238   -43.6388     0.0897 O.2        1  LIG1  -0.6100
     15 C8        -44.4227   -42.2514     0.8737 C.ar       1  LIG1  -0.1700
     16 C9        -42.9696   -38.3300     2.3531 C.3        1  LIG1  -0.1200
     17 C10       -43.8446   -37.4211     3.1772 C.ar       1  LIG1   0.1600
     18 C11       -43.6089   -37.2908     4.5325 C.ar       1  LIG1  -0.1500
     19 C12       -44.4199   -36.4519     5.2818 C.ar       1  LIG1  -0.0700
     20 C13       -45.4418   -35.7728     4.6367 C.ar       1  LIG1  -0.1700
     21 C14       -45.6169   -35.9529     3.2775 C.ar       1  LIG1   0.1000
     22 N6        -44.8263   -36.7589     2.5965 N.ar       1  LIG1  -0.4700
     23 C15       -41.4605   -38.0805     2.3883 C.3        1  LIG1  -0.1300
     24 C16       -42.2660   -37.7222     1.1378 C.3        1  LIG1  -0.1300
     25 H1        -45.2640   -39.3053     1.5229 H          1  LIG1   0.4100
     26 H2        -46.7649   -41.0798     3.0142 H          1  LIG1   0.1500
     27 H3        -47.5288   -43.4115     2.8374 H          1  LIG1   0.1300
     28 H4        -46.3120   -45.0044     1.4119 H          1  LIG1   0.1500
     29 H5        -43.5536   -41.9256     0.3214 H          1  LIG1   0.1300
     30 H6        -42.8035   -37.8356     5.0023 H          1  LIG1   0.1400
     31 H7        -44.2617   -36.3338     6.3436 H          1  LIG1   0.1400
     32 H8        -46.0929   -35.1115     5.1890 H          1  LIG1   0.1400
     33 H9        -46.4106   -35.4272     2.7672 H          1  LIG1   0.1600
     34 H10       -41.1006   -37.2589     3.0076 H          1  LIG1   0.1100
     35 H11       -40.8052   -38.9498     2.3328 H          1  LIG1   0.1000
     36 H12       -42.1408   -38.3558     0.2599 H          1  LIG1   0.1100
     37 H13       -42.4361   -36.6650     0.9344 H          1  LIG1   0.1000
@<TRIPOS>BOND
     1    1    2 2
     2    2    3 am
     3    2   16 1
     4    3    4 1
     5    3   25 1
     6    4   15 ar
     7    4    5 ar
     8    5    6 ar
     9    5   26 1
    10    6    7 ar
    11    6   27 1
    12    7    8 ar
    13    7   28 1
    14    8    9 1
    15    8   15 ar
    16    9   13 am
    17    9   10 1
    18   10   11 2
    19   11   12 1
    20   12   13 1
    21   13   14 2
    22   15   29 1
    23   16   24 1
    24   16   17 1
    25   16   23 1
    26   17   22 ar
    27   17   18 ar
    28   18   19 ar
    29   18   30 1
    30   19   20 ar
    31   19   31 1
    32   20   21 ar
    33   20   32 1
    34   21   22 ar
    35   21   33 1
    36   23   24 1
    37   23   34 1
    38   23   35 1
    39   24   36 1
    40   24   37 1
##########                 Name:     REAL300002140720
##########          Protonation:                 none
##########               SMILES:   CCC1=C(C(=O)NCCC2=CC=CC(C(=O)[O-])=C2)C=CS1
##########            Long Name:   NO_LONG_NAME
##########          FlexRecCode: 1
##########               Number:                 1650
##########   Ligand Source File: /mnt/nfs/exa/work/stefan/Anions/MWT-300-400/Each-pattern/BUILD/pattern1/All-chec
##########                 Rank:                    1
##########               Setnum:                   59
##########             Matchnum:                    1
##########                Cloud:                    1
##########        Electrostatic:           -69.570358
##########                 Gist:             0.000000
##########        Van der Waals:           -25.155460
##########  Ligand Polar Desolv:            41.113892
########## Ligand Apolar Desolv:            -6.505041
##########      Internal Energy:             0.000000
##########      Receptor Energy:             0.000000
########## Receptor Desolvation:             0.000000
########## Receptor Hydrophobic:             0.000000
##########         Total Energy:           -60.116962
##########        Ligand Charge:            -1.000000
##########            Arbitrary:    +999.9990
##########        Ligand Energy:             0.000000

@<TRIPOS>MOLECULE
 REAL300019629839      none
   37    39    -1     0     0



@<TRIPOS>ATOM
      1 C1        -44.5795   -45.7654     1.7081 C.3        1  LIG1   0.0800
      2 N1        -43.7912   -45.3727     0.5374 N.am       1  LIG1  -0.5000
      3 C2        -43.6425   -44.0685     0.2317 C.2        1  LIG1   0.5500
      4 O1        -43.0555   -43.7451    -0.7825 O.2        1  LIG1  -0.4800
      5 C3        -44.1932   -43.0313     1.1297 C.ar       1  LIG1  -0.0800
      6 C4        -43.4599   -41.8753     1.3961 C.ar       1  LIG1  -0.0700
      7 C5        -43.9832   -40.9069     2.2389 C.ar       1  LIG1   0.1600
      8 N2        -43.2512   -39.7453     2.5097 N.am       1  LIG1  -0.5600
      9 C6        -43.7592   -38.6086     3.2867 C.3        1  LIG1   0.0900
     10 C7        -42.5104   -37.7931     3.6888 C.3        1  LIG1  -0.1300
     11 C8        -41.5108   -38.1764     2.5730 C.3        1  LIG1  -0.1500
     12 C9        -41.9925   -39.5272     2.0915 C.2        1  LIG1   0.5100
     13 O2        -41.3382   -40.3007     1.4245 O.2        1  LIG1  -0.4900
     14 C10       -45.2320   -41.0924     2.8193 C.ar       1  LIG1  -0.1000
     15 C11       -45.9613   -42.2360     2.5513 C.ar       1  LIG1  -0.1600
     16 C12       -47.3175   -42.4264     3.1801 C.3        1  LIG1   0.5100
     17 F1        -47.8550   -43.6503     2.7676 F          1  LIG1  -0.1700
     18 F2        -47.1909   -42.4185     4.5733 F          1  LIG1  -0.1800
     19 F3        -48.1656   -41.3870     2.7831 F          1  LIG1  -0.1800
     20 C13       -45.4494   -43.2057     1.7138 C.ar       1  LIG1  -0.0700
     21 C14       -43.1927   -46.3517    -0.2636 C.2        1  LIG1   0.2700
     22 N3        -42.4611   -46.1459    -1.3493 N.2        1  LIG1  -0.3600
     23 N4        -42.0922   -47.2981    -1.7948 N.2        1  LIG1  -0.1900
     24 N5        -42.5742   -48.2169    -1.0322 N.2        1  LIG1  -0.1800
     25 N6        -43.2528   -47.6637    -0.0858 N.2        1  LIG1  -0.4000
     26 H1        -45.6182   -45.9151     1.4132 H          1  LIG1   0.0600
     27 H2        -44.1814   -46.6928     2.1198 H          1  LIG1   0.0900
     28 H3        -44.5255   -44.9804     2.4624 H          1  LIG1   0.0700
     29 H4        -42.4879   -41.7347     0.9468 H          1  LIG1   0.1700
     30 H5        -44.2810   -38.9626     4.1759 H          1  LIG1   0.0900
     31 H6        -44.4263   -38.0004     2.6758 H          1  LIG1   0.0800
     32 H7        -42.1408   -38.1022     4.6666 H          1  LIG1   0.0900
     33 H8        -42.7211   -36.7238     3.6734 H          1  LIG1   0.1000
     34 H9        -41.5458   -37.4480     1.7629 H          1  LIG1   0.1100
     35 H10       -40.5007   -38.2527     2.9753 H          1  LIG1   0.1100
     36 H11       -45.6359   -40.3388     3.4793 H          1  LIG1   0.1400
     37 H12       -46.0205   -44.0994     1.5099 H          1  LIG1   0.1500
@<TRIPOS>BOND
     1    1    2 1
     2    1   26 1
     3    1   27 1
     4    1   28 1
     5    2    3 am
     6    2   21 1
     7    3    4 2
     8    3    5 1
     9    5   20 ar
    10    5    6 ar
    11    6    7 ar
    12    6   29 1
    13    7    8 1
    14    7   14 ar
    15    8   12 am
    16    8    9 1
    17    9   10 1
    18    9   30 1
    19    9   31 1
    20   10   11 1
    21   10   32 1
    22   10   33 1
    23   11   12 1
    24   11   34 1
    25   11   35 1
    26   12   13 2
    27   14   15 ar
    28   14   36 1
    29   15   16 1
    30   15   20 ar
    31   16   17 1
    32   16   18 1
    33   16   19 1
    34   20   37 1
    35   21   25 1
    36   21   22 2
    37   22   23 1
    38   23   24 1
    39   24   25 2
##########                 Name:     REAL300023541711
##########          Protonation:                 none
##########               SMILES:   CCN1N=CC(S(=O)(=O)[N-]C(=O)CC2=CON=C2C)=C1Cl
##########            Long Name:   NO_LONG_NAME
##########          FlexRecCode: 1
##########               Number:                 4321
##########   Ligand Source File: /mnt/nfs/exa/work/stefan/Anions/MWT-300-400/Each-pattern/BUILD/pattern4/All-chec
##########                 Rank:                    1
##########               Setnum:                  159
##########             Matchnum:                    1
##########                Cloud:                    1
##########        Electrostatic:           -73.358917
##########                 Gist:             0.000000
##########        Van der Waals:           -16.897976
##########  Ligand Polar Desolv:            32.115971
########## Ligand Apolar Desolv:            -0.527935
##########      Internal Energy:             0.000000
##########      Receptor Energy:             0.000000
########## Receptor Desolvation:             0.000000
########## Receptor Hydrophobic:             0.000000
##########         Total Energy:           -58.668861
##########        Ligand Charge:            -1.000000
##########            Arbitrary:    +999.9990
##########        Ligand Energy:             0.000000

@<TRIPOS>MOLECULE
 REAL300019824818      none
   37    39    -1     0     0



@<TRIPOS>ATOM
      1 C1        -44.5795   -45.7654     1.7081 C.3        1  LIG1   0.0800
      2 N1        -43.7912   -45.3727     0.5374 N.am       1  LIG1  -0.5000
      3 C2        -43.6425   -44.0685     0.2317 C.2        1  LIG1   0.5500
      4 O1        -43.0555   -43.7451    -0.7825 O.2        1  LIG1  -0.4800
      5 C3        -44.1932   -43.0313     1.1297 C.ar       1  LIG1  -0.0800
      6 C4        -43.4599   -41.8753     1.3961 C.ar       1  LIG1  -0.0700
      7 C5        -43.9832   -40.9069     2.2389 C.ar       1  LIG1   0.1600
      8 N2        -43.2512   -39.7453     2.5097 N.am       1  LIG1  -0.5600
      9 C6        -43.7592   -38.6086     3.2867 C.3        1  LIG1   0.0900
     10 C7        -42.5104   -37.7931     3.6888 C.3        1  LIG1  -0.1300
     11 C8        -41.5108   -38.1764     2.5730 C.3        1  LIG1  -0.1500
     12 C9        -41.9925   -39.5272     2.0915 C.2        1  LIG1   0.5100
     13 O2        -41.3382   -40.3007     1.4245 O.2        1  LIG1  -0.4900
     14 C10       -45.2320   -41.0924     2.8193 C.ar       1  LIG1  -0.1000
     15 C11       -45.9613   -42.2360     2.5513 C.ar       1  LIG1  -0.1600
     16 C12       -47.3175   -42.4264     3.1801 C.3        1  LIG1   0.5100
     17 F1        -47.8550   -43.6503     2.7676 F          1  LIG1  -0.1700
     18 F2        -47.1909   -42.4185     4.5733 F          1  LIG1  -0.1800
     19 F3        -48.1656   -41.3870     2.7831 F          1  LIG1  -0.1800
     20 C13       -45.4494   -43.2057     1.7138 C.ar       1  LIG1  -0.0700
     21 C14       -43.1927   -46.3517    -0.2636 C.2        1  LIG1   0.2700
     22 N3        -42.4611   -46.1459    -1.3493 N.2        1  LIG1  -0.3600
     23 N4        -42.0922   -47.2981    -1.7948 N.2        1  LIG1  -0.1900
     24 N5        -42.5742   -48.2169    -1.0322 N.2        1  LIG1  -0.1800
     25 N6        -43.2528   -47.6637    -0.0858 N.2        1  LIG1  -0.4000
     26 H1        -45.6182   -45.9151     1.4132 H          1  LIG1   0.0600
     27 H2        -44.1814   -46.6928     2.1198 H          1  LIG1   0.0900
     28 H3        -44.5255   -44.9804     2.4624 H          1  LIG1   0.0700
     29 H4        -42.4879   -41.7347     0.9468 H          1  LIG1   0.1700
     30 H5        -44.2810   -38.9626     4.1759 H          1  LIG1   0.0900
     31 H6        -44.4263   -38.0004     2.6758 H          1  LIG1   0.0800
     32 H7        -42.1408   -38.1022     4.6666 H          1  LIG1   0.0900
     33 H8        -42.7211   -36.7238     3.6734 H          1  LIG1   0.1000
     34 H9        -41.5458   -37.4480     1.7629 H          1  LIG1   0.1100
     35 H10       -40.5007   -38.2527     2.9753 H          1  LIG1   0.1100
     36 H11       -45.6359   -40.3388     3.4793 H          1  LIG1   0.1400
     37 H12       -46.0205   -44.0994     1.5099 H          1  LIG1   0.1500
@<TRIPOS>BOND
     1    1    2 1
     2    1   26 1
     3    1   27 1
     4    1   28 1
     5    2    3 am
     6    2   21 1
     7    3    4 2
     8    3    5 1
     9    5   20 ar
    10    5    6 ar
    11    6    7 ar
    12    6   29 1
    13    7    8 1
    14    7   14 ar
    15    8   12 am
    16    8    9 1
    17    9   10 1
    18    9   30 1
    19    9   31 1
    20   10   11 1
    21   10   32 1
    22   10   33 1
    23   11   12 1
    24   11   34 1
    25   11   35 1
    26   12   13 2
    27   14   15 ar
    28   14   36 1
    29   15   16 1
    30   15   20 ar
    31   16   17 1
    32   16   18 1
    33   16   19 1
    34   20   37 1
    35   21   25 1
    36   21   22 2
    37   22   23 1
    38   23   24 1
    39   24   25 2
##########                 Name:     REAL300022545479
##########          Protonation:                 none
##########               SMILES:   O=C([N-]S(=O)(=O)CC1=CC=C(Cl)C=C1)[C@H]1C[C@@H](C2=CC=CC=C2)C1
##########            Long Name:   NO_LONG_NAME
##########          FlexRecCode: 1
##########               Number:                 3860
##########   Ligand Source File: /mnt/nfs/exa/work/stefan/Anions/MWT-300-400/Each-pattern/BUILD/pattern4/All-chec
##########                 Rank:                    1
##########               Setnum:                   62
##########             Matchnum:                    1
##########                Cloud:                    1
##########        Electrostatic:           -70.709938
##########                 Gist:             0.000000
##########        Van der Waals:           -19.659678
##########  Ligand Polar Desolv:            34.726265
########## Ligand Apolar Desolv:            -3.139745
##########      Internal Energy:             0.000000
##########      Receptor Energy:             0.000000
########## Receptor Desolvation:             0.000000
########## Receptor Hydrophobic:             0.000000
##########         Total Energy:           -58.783092
##########        Ligand Charge:            -1.000000
##########            Arbitrary:    +999.9990
##########        Ligand Energy:             0.000000

@<TRIPOS>MOLECULE
 REAL300013376731      none
   38    41    -1     0     0



@<TRIPOS>ATOM
      1 C1        -46.1348   -41.7722     0.6346 C.3        1  LIG1   0.1200
      2 N1        -45.4510   -41.9862     1.9124 N.pl3      1  LIG1  -0.6500
      3 C2        -44.9723   -40.8394     2.6882 C.3        1  LIG1   0.2300
      4 C3        -43.5610   -40.5082     2.2764 C.2        1  LIG1   0.2000
      5 N2        -42.8671   -41.1356     1.3666 N.2        1  LIG1  -0.4800
      6 C4        -41.6555   -40.5693     1.2655 C.2        1  LIG1  -0.0300
      7 C5        -41.5963   -39.5522     2.1463 C.2        1  LIG1  -0.0600
      8 N3        -42.8070   -39.5094     2.7837 N.pl3      1  LIG1  -0.4100
      9 C6        -43.2082   -38.5599     3.8247 C.3        1  LIG1   0.0600
     10 C7        -44.0541   -37.3588     3.3971 C.3        1  LIG1  -0.1700
     11 C8        -42.5869   -37.1623     3.7837 C.3        1  LIG1  -0.1600
     12 C9        -45.2592   -43.2580     2.3815 C.2        1  LIG1   0.4700
     13 C10       -44.5140   -44.1909     1.6329 C.2        1  LIG1  -0.1900
     14 C11       -43.8435   -44.1660     0.4054 C.2        1  LIG1  -0.1900
     15 C12       -43.3006   -45.4352     0.2369 C.2        1  LIG1   0.0600
     16 C13       -42.5065   -45.8768    -0.9138 C.2        1  LIG1   0.5500
     17 O1        -42.2737   -45.1001    -1.8311 O.co2      1  LIG1  -0.6800
     18 O2        -42.0763   -47.0221    -0.9572 O.co2      1  LIG1  -0.6700
     19 N4        -43.6226   -46.1929     1.3040 N.2        1  LIG1  -0.4800
     20 C14       -44.3407   -45.5013     2.1590 C.2        1  LIG1   0.2300
     21 N5        -44.9167   -45.7872     3.3831 N.pl3      1  LIG1  -0.5300
     22 C15       -45.6164   -44.8410     4.0294 C.2        1  LIG1   0.3400
     23 N6        -45.7766   -43.6324     3.5553 N.2        1  LIG1  -0.5400
     24 H1        -46.4151   -42.7348     0.2068 H          1  LIG1   0.0500
     25 H2        -47.0303   -41.1726     0.7977 H          1  LIG1   0.0700
     26 H3        -45.4679   -41.2501    -0.0516 H          1  LIG1   0.0600
     27 H4        -45.6163   -39.9802     2.5015 H          1  LIG1   0.1100
     28 H5        -44.9928   -41.0849     3.7499 H          1  LIG1   0.0800
     29 H6        -40.8658   -40.8749     0.5951 H          1  LIG1   0.1700
     30 H7        -40.7568   -38.8937     2.3139 H          1  LIG1   0.1700
     31 H8        -43.4081   -38.9933     4.8046 H          1  LIG1   0.1400
     32 H9        -44.3120   -37.2750     2.3414 H          1  LIG1   0.1000
     33 H10       -44.8108   -37.0019     4.0958 H          1  LIG1   0.1100
     34 H11       -42.3782   -36.6762     4.7367 H          1  LIG1   0.1000
     35 H12       -41.8794   -36.9494     2.9823 H          1  LIG1   0.1100
     36 H13       -43.7642   -43.3305    -0.2742 H          1  LIG1   0.1400
     37 H14       -44.8189   -46.6704     3.7720 H          1  LIG1   0.4200
     38 H15       -46.0619   -45.0865     4.9821 H          1  LIG1   0.2000
@<TRIPOS>BOND
     1    1    2 1
     2    1   24 1
     3    1   25 1
     4    1   26 1
     5    2    3 1
     6    2   12 1
     7    3    4 1
     8    3   27 1
     9    3   28 1
    10    4    8 1
    11    4    5 2
    12    5    6 1
    13    6    7 2
    14    6   29 1
    15    7    8 1
    16    7   30 1
    17    8    9 1
    18    9   11 1
    19    9   10 1
    20    9   31 1
    21   10   11 1
    22   10   32 1
    23   10   33 1
    24   11   34 1
    25   11   35 1
    26   12   23 1
    27   12   13 2
    28   13   20 1
    29   13   14 1
    30   14   15 2
    31   14   36 1
    32   15   16 1
    33   15   19 1
    34   16   17 2
    35   16   18 1
    36   19   20 2
    37   20   21 1
    38   21   22 1
    39   21   37 1
    40   22   23 2
    41   22   38 1
##########                 Name:     REAL300004573282
##########          Protonation:                 none
##########               SMILES:   CCCCN1C=C(CNC(=O)C2=CSC(C(=O)[O-])=N2)C(C)=N1
##########            Long Name:   NO_LONG_NAME
##########          FlexRecCode: 1
##########               Number:                11764
##########   Ligand Source File: /mnt/nfs/exa/work/stefan/Anions/MWT-300-400/Each-pattern/BUILD/pattern1/All-chec
##########                 Rank:                    1
##########               Setnum:                    2
##########             Matchnum:                    1
##########                Cloud:                    1
##########        Electrostatic:           -66.098114
##########                 Gist:             0.000000
##########        Van der Waals:           -21.148342
##########  Ligand Polar Desolv:            32.932262
########## Ligand Apolar Desolv:            -3.770506
##########      Internal Energy:             0.000000
##########      Receptor Energy:             0.000000
########## Receptor Desolvation:             0.000000
########## Receptor Hydrophobic:             0.000000
##########         Total Energy:           -58.084702
##########        Ligand Charge:            -1.000000
##########            Arbitrary:    +999.9990
##########        Ligand Energy:             0.000000

@<TRIPOS>MOLECULE
 REAL300014161549      none
   45    46    -1     0     0



@<TRIPOS>ATOM
      1 O1        -43.2067   -47.3777    -2.1764 O.co2      1  LIG1  -0.7100
      2 C1        -43.4100   -47.5017    -0.9807 C.2        1  LIG1   0.4900
      3 O2        -42.9874   -48.4803    -0.3886 O.co2      1  LIG1  -0.7000
      4 C2        -44.1837   -46.4455    -0.2345 C.3        1  LIG1  -0.1500
      5 H1        -45.2456   -46.6902    -0.2552 H          1  LIG1   0.0600
      6 C3        -43.7013   -46.3897     1.2165 C.3        1  LIG1  -0.0900
      7 C4        -44.4868   -45.3173     1.9741 C.3        1  LIG1  -0.1100
      8 C5        -44.2638   -43.9571     1.3099 C.3        1  LIG1  -0.1000
      9 H2        -43.2019   -43.7124     1.3306 H          1  LIG1   0.0800
     10 C6        -45.0493   -42.8848     2.0676 C.3        1  LIG1   0.1400
     11 N1        -44.8359   -41.5823     1.4316 N.am       1  LIG1  -0.7400
     12 C7        -43.5917   -41.0721     1.3417 C.2        1  LIG1   0.7000
     13 O3        -42.6464   -41.6927     1.7886 O.2        1  LIG1  -0.5900
     14 N2        -43.3953   -39.8739     0.7567 N.am       1  LIG1  -0.7500
     15 C8        -42.0428   -39.3192     0.6591 C.3        1  LIG1   0.1800
     16 C9        -41.4068   -39.7707    -0.6303 C.ar       1  LIG1  -0.0900
     17 C10       -40.6735   -40.9420    -0.6665 C.ar       1  LIG1  -0.1000
     18 C11       -40.0941   -41.3584    -1.8504 C.ar       1  LIG1  -0.0900
     19 C12       -40.2391   -40.5981    -2.9958 C.ar       1  LIG1  -0.1600
     20 C13       -39.6022   -41.0489    -4.2850 C.3        1  LIG1   0.3100
     21 F1        -39.8867   -40.1231    -5.2945 F          1  LIG1  -0.2000
     22 F2        -38.2168   -41.1409    -4.1136 F          1  LIG1  -0.2000
     23 C14       -40.9679   -39.4241    -2.9584 C.ar       1  LIG1  -0.0900
     24 C15       -41.5518   -39.0104    -1.7757 C.ar       1  LIG1  -0.1000
     25 C16       -44.7461   -44.0129    -0.1410 C.3        1  LIG1  -0.1100
     26 C17       -43.9608   -45.0853    -0.8986 C.3        1  LIG1  -0.1000
     27 H3        -43.8601   -47.3587     1.6896 H          1  LIG1   0.0500
     28 H4        -42.6394   -46.1450     1.2372 H          1  LIG1   0.0700
     29 H5        -45.5487   -45.5621     1.9534 H          1  LIG1   0.0600
     30 H6        -44.1431   -45.2776     3.0077 H          1  LIG1   0.0500
     31 H7        -46.1113   -43.1296     2.0468 H          1  LIG1   0.0600
     32 H8        -44.7058   -42.8450     3.1013 H          1  LIG1   0.0700
     33 H9        -45.5900   -41.0872     1.0753 H          1  LIG1   0.4000
     34 H10       -44.1495   -39.3788     0.4004 H          1  LIG1   0.4000
     35 H11       -42.0944   -38.2307     0.6774 H          1  LIG1   0.0800
     36 H12       -41.4452   -39.6688     1.5009 H          1  LIG1   0.0800
     37 H13       -40.5566   -41.5336     0.2294 H          1  LIG1   0.1300
     38 H14       -39.5244   -42.2754    -1.8795 H          1  LIG1   0.1300
     39 H15       -39.9993   -42.0249    -4.5646 H          1  LIG1   0.1200
     40 H16       -41.0808   -38.8300    -3.8532 H          1  LIG1   0.1300
     41 H17       -42.1209   -38.0929    -1.7464 H          1  LIG1   0.1300
     42 H18       -44.5873   -43.0440    -0.6142 H          1  LIG1   0.0600
     43 H19       -45.8080   -44.2577    -0.1617 H          1  LIG1   0.0600
     44 H20       -42.8988   -44.8405    -0.8779 H          1  LIG1   0.0600
     45 H21       -44.3042   -45.1251    -1.9323 H          1  LIG1   0.0600
@<TRIPOS>BOND
     1    1    2 2
     2    2    3 1
     3    2    4 1
     4    4    5 1
     5    4   26 1
     6    4    6 1
     7    6    7 1
     8    6   27 1
     9    6   28 1
    10    7    8 1
    11    7   29 1
    12    7   30 1
    13    8    9 1
    14    8   10 1
    15    8   25 1
    16   10   11 1
    17   10   31 1
    18   10   32 1
    19   11   12 am
    20   11   33 1
    21   12   13 2
    22   12   14 am
    23   14   15 1
    24   14   34 1
    25   15   16 1
    26   15   35 1
    27   15   36 1
    28   16   24 ar
    29   16   17 ar
    30   17   18 ar
    31   17   37 1
    32   18   19 ar
    33   18   38 1
    34   19   20 1
    35   19   23 ar
    36   20   21 1
    37   20   22 1
    38   20   39 1
    39   23   24 ar
    40   23   40 1
    41   24   41 1
    42   25   26 1
    43   25   42 1
    44   25   43 1
    45   26   44 1
    46   26   45 1
##########                 Name:     REAL250002166609
##########          Protonation:                 none
##########               SMILES:   CC(C(=O)N[C@H]1CCC[C@H]1C(=O)[O-])C1=CC(F)=CC(F)=C1
##########            Long Name:   NO_LONG_NAME
##########          FlexRecCode: 1
##########               Number:                 7151
##########   Ligand Source File: /mnt/nfs/exa/work/stefan/Anions/MWT-250-300/Each-pattern/BUILD/pattern1/All-chec
##########                 Rank:                    1
##########               Setnum:                    4
##########             Matchnum:                    1
##########                Cloud:                    1
##########        Electrostatic:           -71.777992
##########                 Gist:             0.000000
##########        Van der Waals:           -14.710792
##########  Ligand Polar Desolv:            35.060257
########## Ligand Apolar Desolv:            -6.425903
##########      Internal Energy:             0.000000
##########      Receptor Energy:             0.000000
########## Receptor Desolvation:             0.000000
########## Receptor Hydrophobic:             0.000000
##########         Total Energy:           -57.854431
##########        Ligand Charge:            -1.000000
##########            Arbitrary:    +999.9990
##########        Ligand Energy:             0.000000

@<TRIPOS>MOLECULE
 REAL300013614079      none
   45    46    -1     0     0



@<TRIPOS>ATOM
      1 O1        -43.2067   -47.3777    -2.1764 O.co2      1  LIG1  -0.7100
      2 C1        -43.4100   -47.5017    -0.9807 C.2        1  LIG1   0.4900
      3 O2        -42.9874   -48.4803    -0.3886 O.co2      1  LIG1  -0.7000
      4 C2        -44.1837   -46.4455    -0.2345 C.3        1  LIG1  -0.1500
      5 H1        -45.2456   -46.6902    -0.2552 H          1  LIG1   0.0600
      6 C3        -43.7013   -46.3897     1.2165 C.3        1  LIG1  -0.0900
      7 C4        -44.4868   -45.3173     1.9741 C.3        1  LIG1  -0.1100
      8 C5        -44.2638   -43.9571     1.3099 C.3        1  LIG1  -0.1000
      9 H2        -43.2019   -43.7124     1.3306 H          1  LIG1   0.0800
     10 C6        -45.0493   -42.8848     2.0676 C.3        1  LIG1   0.1400
     11 N1        -44.8359   -41.5823     1.4316 N.am       1  LIG1  -0.7400
     12 C7        -43.5917   -41.0721     1.3417 C.2        1  LIG1   0.7000
     13 O3        -42.6464   -41.6927     1.7886 O.2        1  LIG1  -0.5900
     14 N2        -43.3953   -39.8739     0.7567 N.am       1  LIG1  -0.7500
     15 C8        -42.0428   -39.3192     0.6591 C.3        1  LIG1   0.1800
     16 C9        -41.4068   -39.7707    -0.6303 C.ar       1  LIG1  -0.0900
     17 C10       -40.6735   -40.9420    -0.6665 C.ar       1  LIG1  -0.1000
     18 C11       -40.0941   -41.3584    -1.8504 C.ar       1  LIG1  -0.0900
     19 C12       -40.2391   -40.5981    -2.9958 C.ar       1  LIG1  -0.1600
     20 C13       -39.6022   -41.0489    -4.2850 C.3        1  LIG1   0.3100
     21 F1        -39.8867   -40.1231    -5.2945 F          1  LIG1  -0.2000
     22 F2        -38.2168   -41.1409    -4.1136 F          1  LIG1  -0.2000
     23 C14       -40.9679   -39.4241    -2.9584 C.ar       1  LIG1  -0.0900
     24 C15       -41.5518   -39.0104    -1.7757 C.ar       1  LIG1  -0.1000
     25 C16       -44.7461   -44.0129    -0.1410 C.3        1  LIG1  -0.1100
     26 C17       -43.9608   -45.0853    -0.8986 C.3        1  LIG1  -0.1000
     27 H3        -43.8601   -47.3587     1.6896 H          1  LIG1   0.0500
     28 H4        -42.6394   -46.1450     1.2372 H          1  LIG1   0.0700
     29 H5        -45.5487   -45.5621     1.9534 H          1  LIG1   0.0600
     30 H6        -44.1431   -45.2776     3.0077 H          1  LIG1   0.0500
     31 H7        -46.1113   -43.1296     2.0468 H          1  LIG1   0.0600
     32 H8        -44.7058   -42.8450     3.1013 H          1  LIG1   0.0700
     33 H9        -45.5900   -41.0872     1.0753 H          1  LIG1   0.4000
     34 H10       -44.1495   -39.3788     0.4004 H          1  LIG1   0.4000
     35 H11       -42.0944   -38.2307     0.6774 H          1  LIG1   0.0800
     36 H12       -41.4452   -39.6688     1.5009 H          1  LIG1   0.0800
     37 H13       -40.5566   -41.5336     0.2294 H          1  LIG1   0.1300
     38 H14       -39.5244   -42.2754    -1.8795 H          1  LIG1   0.1300
     39 H15       -39.9993   -42.0249    -4.5646 H          1  LIG1   0.1200
     40 H16       -41.0808   -38.8300    -3.8532 H          1  LIG1   0.1300
     41 H17       -42.1209   -38.0929    -1.7464 H          1  LIG1   0.1300
     42 H18       -44.5873   -43.0440    -0.6142 H          1  LIG1   0.0600
     43 H19       -45.8080   -44.2577    -0.1617 H          1  LIG1   0.0600
     44 H20       -42.8988   -44.8405    -0.8779 H          1  LIG1   0.0600
     45 H21       -44.3042   -45.1251    -1.9323 H          1  LIG1   0.0600
@<TRIPOS>BOND
     1    1    2 2
     2    2    3 1
     3    2    4 1
     4    4    5 1
     5    4   26 1
     6    4    6 1
     7    6    7 1
     8    6   27 1
     9    6   28 1
    10    7    8 1
    11    7   29 1
    12    7   30 1
    13    8    9 1
    14    8   10 1
    15    8   25 1
    16   10   11 1
    17   10   31 1
    18   10   32 1
    19   11   12 am
    20   11   33 1
    21   12   13 2
    22   12   14 am
    23   14   15 1
    24   14   34 1
    25   15   16 1
    26   15   35 1
    27   15   36 1
    28   16   24 ar
    29   16   17 ar
    30   17   18 ar
    31   17   37 1
    32   18   19 ar
    33   18   38 1
    34   19   20 1
    35   19   23 ar
    36   20   21 1
    37   20   22 1
    38   20   39 1
    39   23   24 ar
    40   23   40 1
    41   24   41 1
    42   25   26 1
    43   25   42 1
    44   25   43 1
    45   26   44 1
    46   26   45 1
##########                 Name:     REAL300003004045
##########          Protonation:                 none
##########               SMILES:   O=C([O-])[C@@H]1CN(C(=O)CSC2=CC3=CC=CC=C3C=C2)C[C@H]1C1=CC=CC=C1
##########            Long Name:   NO_LONG_NAME
##########          FlexRecCode: 1
##########               Number:                  137
##########   Ligand Source File: /mnt/nfs/exa/work/stefan/Anions/MWT-300-400/Each-pattern/BUILD/pattern1/All-chec
##########                 Rank:                    1
##########               Setnum:                   29
##########             Matchnum:                    1
##########                Cloud:                    1
##########        Electrostatic:           -54.711281
##########                 Gist:             0.000000
##########        Van der Waals:           -29.003120
##########  Ligand Polar Desolv:            35.207382
########## Ligand Apolar Desolv:            -9.483207
##########      Internal Energy:             0.000000
##########      Receptor Energy:             0.000000
########## Receptor Desolvation:             0.000000
########## Receptor Hydrophobic:             0.000000
##########         Total Energy:           -57.990227
##########        Ligand Charge:            -1.000000
##########            Arbitrary:    +999.9990
##########        Ligand Energy:             0.000000

@<TRIPOS>MOLECULE
 REAL300006182846      none
   38    39    -1     0     0



@<TRIPOS>ATOM
      1 O1        -42.2170   -46.1243    -0.7713 O.co2      1  LIG1  -0.7000
      2 C1        -42.9060   -45.1189    -0.8000 C.2        1  LIG1   0.4900
      3 O2        -42.6316   -44.2136    -1.5693 O.co2      1  LIG1  -0.7100
      4 C2        -44.0966   -44.9949     0.1154 C.3        1  LIG1  -0.1800
      5 C3        -43.9158   -43.7783     1.0254 C.3        1  LIG1  -0.0800
      6 C4        -45.1246   -43.6524     1.9548 C.3        1  LIG1  -0.1100
      7 H1        -45.2619   -44.5263     2.5915 H          1  LIG1   0.0900
      8 C5        -46.4098   -43.2035     1.2394 C.3        1  LIG1  -0.1400
      9 C6        -46.6957   -42.3250     2.4710 C.3        1  LIG1   0.1100
     10 H2        -47.2632   -42.8353     3.2491 H          1  LIG1   0.1200
     11 N1        -47.2413   -41.0065     2.1390 N.am       1  LIG1  -0.7100
     12 C7        -47.8829   -40.2862     3.0802 C.2        1  LIG1   0.4900
     13 O3        -48.0086   -40.7296     4.2022 O.2        1  LIG1  -0.5300
     14 C8        -48.4440   -38.9300     2.7388 C.3        1  LIG1   0.1300
     15 O4        -48.8140   -38.9012     1.3588 O.3        1  LIG1  -0.5200
     16 C9        -47.4011   -37.8742     3.0012 C.ar       1  LIG1  -0.1100
     17 C10       -46.0598   -38.1813     2.8735 C.ar       1  LIG1  -0.0800
     18 C11       -45.1027   -37.2117     3.1087 C.ar       1  LIG1  -0.1000
     19 C12       -45.4870   -35.9366     3.4828 C.ar       1  LIG1  -0.0200
     20 Cl1       -44.2856   -34.7201     3.7839 Cl         1  LIG1  -0.0500
     21 C13       -46.8295   -35.6302     3.6164 C.ar       1  LIG1  -0.0900
     22 C14       -47.7867   -36.5991     3.3755 C.ar       1  LIG1  -0.0200
     23 Cl2       -49.4716   -36.2153     3.5420 Cl         1  LIG1  -0.0400
     24 C15       -45.1779   -42.3190     2.7190 C.3        1  LIG1  -0.1400
     25 H3        -44.1820   -45.8947     0.7244 H          1  LIG1   0.0500
     26 H4        -45.0014   -44.8719    -0.4800 H          1  LIG1   0.0500
     27 H5        -43.8303   -42.8784     0.4164 H          1  LIG1   0.0600
     28 H6        -43.0110   -43.9013     1.6208 H          1  LIG1   0.0600
     29 H7        -46.2262   -42.6315     0.3299 H          1  LIG1   0.0800
     30 H8        -47.1328   -44.0064     1.0958 H          1  LIG1   0.0700
     31 H9        -47.1407   -40.6519     1.2417 H          1  LIG1   0.4000
     32 H10       -49.3220   -38.7345     3.3544 H          1  LIG1   0.1400
     33 H11       -48.0802   -39.0676     0.7512 H          1  LIG1   0.3800
     34 H12       -45.7592   -39.1781     2.5861 H          1  LIG1   0.1500
     35 H13       -44.0547   -37.4512     3.0048 H          1  LIG1   0.1500
     36 H14       -47.1299   -34.6347     3.9081 H          1  LIG1   0.1500
     37 H15       -44.9070   -42.4075     3.7711 H          1  LIG1   0.0700
     38 H16       -44.6563   -41.5055     2.2146 H          1  LIG1   0.0800
@<TRIPOS>BOND
     1    1    2 2
     2    2    3 1
     3    2    4 1
     4    4    5 1
     5    4   25 1
     6    4   26 1
     7    5    6 1
     8    5   27 1
     9    5   28 1
    10    6    7 1
    11    6   24 1
    12    6    8 1
    13    8    9 1
    14    8   29 1
    15    8   30 1
    16    9   10 1
    17    9   11 1
    18    9   24 1
    19   11   12 am
    20   11   31 1
    21   12   13 2
    22   12   14 1
    23   14   15 1
    24   14   16 1
    25   14   32 1
    26   15   33 1
    27   16   22 ar
    28   16   17 ar
    29   17   18 ar
    30   17   34 1
    31   18   19 ar
    32   18   35 1
    33   19   20 1
    34   19   21 ar
    35   21   22 ar
    36   21   36 1
    37   22   23 1
    38   24   37 1
    39   24   38 1
##########                 Name:     REAL300000309800
##########          Protonation:                 none
##########               SMILES:   O=C([O-])C1=CC(F)=CC=C1NS(=O)(=O)C1=CC=CC2=CC=CN=C21
##########            Long Name:   NO_LONG_NAME
##########          FlexRecCode: 1
##########               Number:                 6000
##########   Ligand Source File: /mnt/nfs/exa/work/stefan/Anions/MWT-300-400/Each-pattern/BUILD/pattern1/All-chec
##########                 Rank:                    1
##########               Setnum:                   27
##########             Matchnum:                    1
##########                Cloud:                    1
##########        Electrostatic:           -62.262665
##########                 Gist:             0.000000
##########        Van der Waals:           -24.927319
##########  Ligand Polar Desolv:            34.516567
########## Ligand Apolar Desolv:            -5.034424
##########      Internal Energy:             0.000000
##########      Receptor Energy:             0.000000
########## Receptor Desolvation:             0.000000
########## Receptor Hydrophobic:             0.000000
##########         Total Energy:           -57.707844
##########        Ligand Charge:            -1.000000
##########            Arbitrary:    +999.9990
##########        Ligand Energy:             0.000000

@<TRIPOS>MOLECULE
 REAL300024335216      none
   36    38    -1     0     0



@<TRIPOS>ATOM
      1 C1        -47.8690   -34.9612     4.1232 C.3        1  LIG1   0.0300
      2 O1        -46.5666   -35.5142     3.9234 O.3        1  LIG1  -0.3200
      3 C2        -46.5010   -36.8199     3.5548 C.ar       1  LIG1   0.1400
      4 C3        -45.2663   -37.4187     3.3421 C.ar       1  LIG1  -0.1500
      5 C4        -45.1967   -38.7431     2.9650 C.ar       1  LIG1  -0.0500
      6 C5        -46.3673   -39.4804     2.7951 C.ar       1  LIG1  -0.0600
      7 C6        -46.2957   -40.9056     2.3889 C.2        1  LIG1   0.0600
      8 N1        -47.3031   -41.7198     2.1920 N.2        1  LIG1  -0.3500
      9 O2        -46.9238   -42.8195     1.8621 O.3        1  LIG1   0.1200
     10 C7        -45.5862   -42.8890     1.8032 C.2        1  LIG1  -0.0200
     11 C8        -44.7634   -44.0962     1.4332 C.3        1  LIG1  -0.5400
     12 S1        -43.4545   -43.6046     0.2775 S.o2       1  LIG1   2.5600
     13 O3        -42.3678   -43.0138     0.9768 O.2        1  LIG1  -0.9200
     14 O4        -44.0120   -42.9813    -0.8714 O.2        1  LIG1  -0.9300
     15 C9        -42.8061   -45.1278    -0.3261 C.2        1  LIG1  -0.4000
     16 N2        -42.7930   -45.5049    -1.5775 N.2        1  LIG1  -0.3100
     17 N3        -42.1913   -46.7735    -1.6127 N.2        1  LIG1  -0.4000
     18 C10       -41.8759   -47.0782    -0.3420 C.2        1  LIG1   0.1300
     19 C11       -41.2080   -48.3461     0.1245 C.3        1  LIG1  -0.0400
     20 N4        -42.2549   -46.0844     0.4199 N.2        1  LIG1  -0.5400
     21 C12       -45.1188   -41.6643     2.1346 C.2        1  LIG1  -0.2000
     22 C13       -47.6056   -38.8747     3.0022 C.ar       1  LIG1  -0.0500
     23 C14       -47.6688   -37.5514     3.3844 C.ar       1  LIG1  -0.2100
     24 H1        -47.7786   -33.9150     4.4159 H          1  LIG1   0.0600
     25 H2        -48.4396   -35.0313     3.1971 H          1  LIG1   0.0600
     26 H3        -48.3823   -35.5151     4.9091 H          1  LIG1   0.1000
     27 H4        -44.3596   -36.8469     3.4738 H          1  LIG1   0.1400
     28 H5        -44.2362   -39.2089     2.8016 H          1  LIG1   0.1400
     29 H6        -45.4036   -44.8415     0.9615 H          1  LIG1   0.1600
     30 H7        -44.3145   -44.5191     2.3319 H          1  LIG1   0.1600
     31 H8        -41.0795   -48.3121     1.2063 H          1  LIG1   0.0600
     32 H9        -40.2335   -48.4407    -0.3544 H          1  LIG1   0.0600
     33 H10       -41.8281   -49.2023    -0.1412 H          1  LIG1   0.0600
     34 H11       -44.0910   -41.3377     2.1927 H          1  LIG1   0.1800
     35 H12       -48.5143   -39.4426     2.8673 H          1  LIG1   0.1300
     36 H13       -48.6278   -37.0827     3.5490 H          1  LIG1   0.1300
@<TRIPOS>BOND
     1    1    2 1
     2    1   24 1
     3    1   25 1
     4    1   26 1
     5    2    3 1
     6    3   23 ar
     7    3    4 ar
     8    4    5 ar
     9    4   27 1
    10    5    6 ar
    11    5   28 1
    12    6    7 1
    13    6   22 ar
    14    7   21 1
    15    7    8 2
    16    8    9 1
    17    9   10 1
    18   10   11 1
    19   10   21 2
    20   11   12 1
    21   11   29 1
    22   11   30 1
    23   12   13 2
    24   12   14 2
    25   12   15 1
    26   15   20 1
    27   15   16 2
    28   16   17 1
    29   17   18 1
    30   18   19 1
    31   18   20 2
    32   19   31 1
    33   19   32 1
    34   19   33 1
    35   21   34 1
    36   22   23 ar
    37   22   35 1
    38   23   36 1
##########                 Name:     REAL300011186866
##########          Protonation:                 none
##########               SMILES:   O=C([O-])CN(CC1=CC=CC=C1)C1=CC=C(C(F)(F)F)N=N1
##########            Long Name:   NO_LONG_NAME
##########          FlexRecCode: 1
##########               Number:                 2111
##########   Ligand Source File: /mnt/nfs/exa/work/stefan/Anions/MWT-300-400/Each-pattern/BUILD/pattern1/All-chec
##########                 Rank:                    1
##########               Setnum:                   11
##########             Matchnum:                    1
##########                Cloud:                    1
##########        Electrostatic:           -54.141365
##########                 Gist:             0.000000
##########        Van der Waals:           -26.834780
##########  Ligand Polar Desolv:            30.116728
########## Ligand Apolar Desolv:            -6.885530
##########      Internal Energy:             0.000000
##########      Receptor Energy:             0.000000
########## Receptor Desolvation:             0.000000
########## Receptor Hydrophobic:             0.000000
##########         Total Energy:           -57.744946
##########        Ligand Charge:            -1.000000
##########            Arbitrary:    +999.9990
##########        Ligand Energy:             0.000000

@<TRIPOS>MOLECULE
 REAL300005169407      none
   41    43    -1     0     0



@<TRIPOS>ATOM
      1 C1        -49.2713   -38.7683     2.5684 C.3        1  LIG1  -0.1600
      2 C2        -47.8737   -39.2752     2.9298 C.3        1  LIG1   0.2100
      3 N1        -47.4204   -40.2253     1.9110 N.am       1  LIG1  -0.7300
      4 C3        -46.5489   -41.2000     2.2385 C.2        1  LIG1   0.5300
      5 O1        -46.1402   -41.2904     3.3768 O.2        1  LIG1  -0.5300
      6 C4        -46.0827   -42.1773     1.1905 C.3        1  LIG1  -0.1400
      7 C5        -44.5544   -42.3595     1.1547 C.3        1  LIG1  -0.1000
      8 C6        -44.8233   -43.8505     0.9488 C.3        1  LIG1  -0.1100
      9 C7        -44.7292   -44.4867    -0.4385 C.3        1  LIG1  -0.0900
     10 C8        -44.3304   -45.7895     0.2783 C.3        1  LIG1  -0.1700
     11 C9        -43.2291   -46.5474    -0.4171 C.2        1  LIG1   0.5000
     12 O2        -43.3511   -47.7416    -0.6301 O.co2      1  LIG1  -0.7000
     13 O3        -42.2158   -45.9663    -0.7668 O.co2      1  LIG1  -0.7000
     14 C10       -43.8344   -44.9117     1.4417 C.3        1  LIG1  -0.1000
     15 C11       -46.1743   -43.6481     1.6358 C.3        1  LIG1  -0.0900
     16 C12       -46.9180   -38.1117     2.9924 C.2        1  LIG1  -0.1600
     17 C13       -47.2421   -36.8375     2.7672 C.2        1  LIG1  -0.1400
     18 C14       -46.1950   -35.9398     2.8851 C.2        1  LIG1  -0.0500
     19 C15       -45.0188   -36.4860     3.1971 C.2        1  LIG1  -0.3100
     20 C16       -43.7291   -35.7274     3.3769 C.3        1  LIG1   0.5400
     21 F1        -43.9571   -34.3633     3.1660 F          1  LIG1  -0.1700
     22 F2        -43.2494   -35.9247     4.6762 F          1  LIG1  -0.1700
     23 F3        -42.7836   -36.1901     2.4554 F          1  LIG1  -0.1700
     24 S1        -45.2032   -38.2270     3.3660 S.3        1  LIG1   0.2000
     25 H1        -49.6086   -38.0614     3.3265 H          1  LIG1   0.0700
     26 H2        -49.2383   -38.2725     1.5983 H          1  LIG1   0.0700
     27 H3        -49.9626   -39.6099     2.5231 H          1  LIG1   0.0600
     28 H4        -47.9065   -39.7710     3.8999 H          1  LIG1   0.1100
     29 H5        -47.7471   -40.1528     1.0005 H          1  LIG1   0.4000
     30 H6        -46.5224   -41.9887     0.2111 H          1  LIG1   0.1100
     31 H7        -44.0642   -42.1299     2.1008 H          1  LIG1   0.0900
     32 H8        -44.0751   -41.8794     0.3015 H          1  LIG1   0.0700
     33 H9        -43.9365   -44.0684    -1.0588 H          1  LIG1   0.0800
     34 H10       -45.6858   -44.5481    -0.9575 H          1  LIG1   0.0600
     35 H11       -45.1796   -46.4215     0.5385 H          1  LIG1   0.0800
     36 H12       -44.0769   -45.3121     2.4261 H          1  LIG1   0.0600
     37 H13       -42.7898   -44.6142     1.3507 H          1  LIG1   0.0800
     38 H14       -46.9906   -44.1973     1.1663 H          1  LIG1   0.0800
     39 H15       -46.1396   -43.7808     2.7171 H          1  LIG1   0.0800
     40 H16       -48.2459   -36.5293     2.5148 H          1  LIG1   0.1600
     41 H17       -46.3203   -34.8780     2.7323 H          1  LIG1   0.1500
@<TRIPOS>BOND
     1    1    2 1
     2    1   25 1
     3    1   26 1
     4    1   27 1
     5    2    3 1
     6    2   16 1
     7    2   28 1
     8    3    4 am
     9    3   29 1
    10    4    5 2
    11    4    6 1
    12    6   15 1
    13    6    7 1
    14    6   30 1
    15    7    8 1
    16    7   31 1
    17    7   32 1
    18    8   14 1
    19    8    9 1
    20    8   15 1
    21    9   10 1
    22    9   33 1
    23    9   34 1
    24   10   11 1
    25   10   14 1
    26   10   35 1
    27   11   12 2
    28   11   13 1
    29   14   36 1
    30   14   37 1
    31   15   38 1
    32   15   39 1
    33   16   24 1
    34   16   17 2
    35   17   18 1
    36   17   40 1
    37   18   19 2
    38   18   41 1
    39   19   20 1
    40   19   24 1
    41   20   21 1
    42   20   22 1
    43   20   23 1
##########                 Name:     REAL300021436007
##########          Protonation:                 none
##########               SMILES:   CC1=CC(F)=CC(S(=O)(=O)[N-]C(=O)CC2CC(F)C2)=C1
##########            Long Name:   NO_LONG_NAME
##########          FlexRecCode: 1
##########               Number:                 7246
##########   Ligand Source File: /mnt/nfs/exa/work/stefan/Anions/MWT-300-400/Each-pattern/BUILD/pattern4/All-chec
##########                 Rank:                    1
##########               Setnum:                   16
##########             Matchnum:                    1
##########                Cloud:                    1
##########        Electrostatic:           -73.490799
##########                 Gist:             0.000000
##########        Van der Waals:           -13.763676
##########  Ligand Polar Desolv:            31.779049
########## Ligand Apolar Desolv:            -2.094281
##########      Internal Energy:             0.000000
##########      Receptor Energy:             0.000000
########## Receptor Desolvation:             0.000000
########## Receptor Hydrophobic:             0.000000
##########         Total Energy:           -57.569702
##########        Ligand Charge:            -1.000000
##########            Arbitrary:    +999.9990
##########        Ligand Energy:             0.000000

@<TRIPOS>MOLECULE
 REAL300019629778      none
   36    39    -1     0     0



@<TRIPOS>ATOM
      1 C1        -43.6510   -45.5529     2.3132 C.3        1  LIG1   0.1000
      2 N1        -43.5881   -45.1609     0.9030 N.am       1  LIG1  -0.4900
      3 C2        -44.2247   -44.0494     0.4837 C.2        1  LIG1   0.6000
      4 O1        -44.1725   -43.7240    -0.6866 O.2        1  LIG1  -0.4600
      5 C3        -44.9860   -43.2260     1.4463 C.2        1  LIG1   0.1800
      6 N2        -45.1816   -41.9270     1.3686 N.2        1  LIG1  -0.2600
      7 N3        -45.8858   -41.5539     2.3811 N.pl3      1  LIG1  -0.2600
      8 C4        -46.2989   -40.2425     2.6532 C.ar       1  LIG1   0.1300
      9 C5        -47.6515   -39.9430     2.7392 C.ar       1  LIG1  -0.1000
     10 C6        -48.0556   -38.6493     3.0070 C.ar       1  LIG1  -0.1000
     11 C7        -47.1149   -37.6530     3.1896 C.ar       1  LIG1  -0.0900
     12 C8        -45.7661   -37.9470     3.1046 C.ar       1  LIG1  -0.1000
     13 C9        -45.3550   -39.2391     2.8370 C.ar       1  LIG1  -0.0200
     14 Cl1       -43.6621   -39.6080     2.7300 Cl         1  LIG1  -0.0300
     15 C10       -46.1632   -42.6396     3.1318 C.2        1  LIG1   0.2500
     16 C11       -46.9685   -42.6591     4.4055 C.3        1  LIG1  -0.1000
     17 C12       -46.9928   -43.9625     5.2062 C.3        1  LIG1  -0.1400
     18 C13       -48.2339   -43.5187     4.4282 C.3        1  LIG1  -0.1500
     19 N4        -45.6067   -43.6733     2.5534 N.2        1  LIG1  -0.4500
     20 C14       -42.8672   -45.9405    -0.0085 C.2        1  LIG1   0.2800
     21 N5        -42.7284   -45.7127    -1.3066 N.2        1  LIG1  -0.3600
     22 N6        -41.9925   -46.6543    -1.7909 N.2        1  LIG1  -0.1900
     23 N7        -41.6731   -47.4661    -0.8438 N.2        1  LIG1  -0.1800
     24 N8        -42.1963   -47.0516     0.2591 N.2        1  LIG1  -0.4000
     25 H1        -43.0808   -46.4699     2.4612 H          1  LIG1   0.0600
     26 H2        -43.2292   -44.7593     2.9300 H          1  LIG1   0.0800
     27 H3        -44.6897   -45.7211     2.5978 H          1  LIG1   0.0800
     28 H4        -48.3874   -40.7198     2.5925 H          1  LIG1   0.1400
     29 H5        -49.1080   -38.4161     3.0741 H          1  LIG1   0.1400
     30 H6        -47.4339   -36.6426     3.3990 H          1  LIG1   0.1400
     31 H7        -45.0336   -37.1665     3.2480 H          1  LIG1   0.1500
     32 H8        -46.9851   -41.7240     4.9655 H          1  LIG1   0.1300
     33 H9        -46.4262   -44.8061     4.8118 H          1  LIG1   0.1100
     34 H10       -47.0256   -43.8851     6.2930 H          1  LIG1   0.1100
     35 H11       -49.0829   -43.1494     5.0034 H          1  LIG1   0.1100
     36 H12       -48.4842   -44.0700     3.5217 H          1  LIG1   0.1000
@<TRIPOS>BOND
     1    1    2 1
     2    1   25 1
     3    1   26 1
     4    1   27 1
     5    2    3 am
     6    2   20 1
     7    3    4 2
     8    3    5 1
     9    5   19 1
    10    5    6 2
    11    6    7 1
    12    7    8 1
    13    7   15 1
    14    8   13 ar
    15    8    9 ar
    16    9   10 ar
    17    9   28 1
    18   10   11 ar
    19   10   29 1
    20   11   12 ar
    21   11   30 1
    22   12   13 ar
    23   12   31 1
    24   13   14 1
    25   15   16 1
    26   15   19 2
    27   16   18 1
    28   16   17 1
    29   16   32 1
    30   17   18 1
    31   17   33 1
    32   17   34 1
    33   18   35 1
    34   18   36 1
    35   20   24 1
    36   20   21 2
    37   21   22 1
    38   22   23 1
    39   23   24 2
##########                 Name:     REAL300023520823
##########          Protonation:                 none
##########               SMILES:   CN1N=CC(S(=O)(=O)[N-]C(=O)CN2C=C(C#N)C=N2)=C1Cl
##########            Long Name:   NO_LONG_NAME
##########          FlexRecCode: 1
##########               Number:                 4652
##########   Ligand Source File: /mnt/nfs/exa/work/stefan/Anions/MWT-300-400/Each-pattern/BUILD/pattern4/All-chec
##########                 Rank:                    1
##########               Setnum:                  134
##########             Matchnum:                    1
##########                Cloud:                    1
##########        Electrostatic:           -71.734543
##########                 Gist:             0.000000
##########        Van der Waals:           -19.287771
##########  Ligand Polar Desolv:            33.697250
########## Ligand Apolar Desolv:            -0.128198
##########      Internal Energy:             0.000000
##########      Receptor Energy:             0.000000
########## Receptor Desolvation:             0.000000
########## Receptor Hydrophobic:             0.000000
##########         Total Energy:           -57.453262
##########        Ligand Charge:            -1.000000
##########            Arbitrary:    +999.9990
##########        Ligand Energy:             0.000000

@<TRIPOS>MOLECULE
 REAL250003459220      none
   40    42    -1     0     0



@<TRIPOS>ATOM
      1 O1        -44.0194   -45.8348    -2.0233 O.co2      1  LIG1  -0.7000
      2 C1        -43.4109   -45.5944    -0.9945 C.2        1  LIG1   0.5000
      3 O2        -42.2146   -45.8203    -0.9266 O.co2      1  LIG1  -0.7000
      4 C2        -44.1374   -45.0181     0.1935 C.3        1  LIG1  -0.1700
      5 C3        -45.1611   -43.9323    -0.1777 C.3        1  LIG1  -0.1200
      6 C4        -44.6884   -43.1675     1.0699 C.3        1  LIG1   0.1300
      7 N1        -44.5797   -41.7210     0.8653 N.am       1  LIG1  -0.7300
      8 C5        -43.9665   -40.9540     1.7885 C.2        1  LIG1   0.7100
      9 O3        -43.5035   -41.4626     2.7911 O.2        1  LIG1  -0.5900
     10 N2        -43.8665   -39.6233     1.6003 N.am       1  LIG1  -0.7400
     11 C6        -43.1999   -38.7896     2.6037 C.3        1  LIG1   0.1500
     12 H1        -42.8488   -39.4085     3.4294 H          1  LIG1   0.1000
     13 C7        -44.1702   -37.7155     3.1255 C.3        1  LIG1  -0.1400
     14 C8        -43.5404   -36.3493     2.7843 C.3        1  LIG1  -0.1200
     15 C9        -42.5977   -36.6525     1.5932 C.3        1  LIG1  -0.1300
     16 C10       -42.0133   -38.0395     1.9638 C.3        1  LIG1   0.1500
     17 H2        -41.1990   -37.9318     2.6804 H          1  LIG1   0.1200
     18 N3        -41.5518   -38.7399     0.7627 N.pl3      1  LIG1  -0.3600
     19 C11       -40.6063   -39.7019     0.7186 C.2        1  LIG1   0.0400
     20 C12       -40.4726   -40.0900    -0.5707 C.2        1  LIG1  -0.2600
     21 C13       -41.3670   -39.3396    -1.3410 C.2        1  LIG1   0.0400
     22 N4        -42.0183   -38.5340    -0.5420 N.2        1  LIG1  -0.2900
     23 C14       -43.3501   -43.9160     0.9217 C.3        1  LIG1  -0.1200
     24 H3        -44.5354   -45.7845     0.8586 H          1  LIG1   0.0800
     25 H4        -44.9361   -43.4218    -1.1142 H          1  LIG1   0.0800
     26 H5        -46.1961   -44.2691    -0.1174 H          1  LIG1   0.0600
     27 H6        -45.2364   -43.4280     1.9754 H          1  LIG1   0.1100
     28 H7        -44.9492   -41.3151     0.0655 H          1  LIG1   0.3900
     29 H8        -44.2358   -39.2174     0.8003 H          1  LIG1   0.3900
     30 H9        -45.1372   -37.8145     2.6322 H          1  LIG1   0.0800
     31 H10       -44.2902   -37.8132     4.2044 H          1  LIG1   0.0800
     32 H11       -44.3109   -35.6370     2.4891 H          1  LIG1   0.0800
     33 H12       -42.9742   -35.9674     3.6338 H          1  LIG1   0.0700
     34 H13       -43.1590   -36.7063     0.6604 H          1  LIG1   0.0800
     35 H14       -41.8067   -35.9055     1.5268 H          1  LIG1   0.0800
     36 H15       -40.0554   -40.0922     1.5616 H          1  LIG1   0.1700
     37 H16       -39.7950   -40.8456    -0.9398 H          1  LIG1   0.1500
     38 H17       -41.5001   -39.4154    -2.4101 H          1  LIG1   0.1800
     39 H18       -42.9230   -44.2392     1.8711 H          1  LIG1   0.0600
     40 H19       -42.6289   -43.4021     0.2863 H          1  LIG1   0.0800
@<TRIPOS>BOND
     1    1    2 2
     2    2    3 1
     3    2    4 1
     4    4   23 1
     5    4    5 1
     6    4   24 1
     7    5    6 1
     8    5   25 1
     9    5   26 1
    10    6    7 1
    11    6   23 1
    12    6   27 1
    13    7    8 am
    14    7   28 1
    15    8    9 2
    16    8   10 am
    17   10   11 1
    18   10   29 1
    19   11   12 1
    20   11   16 1
    21   11   13 1
    22   13   14 1
    23   13   30 1
    24   13   31 1
    25   14   15 1
    26   14   32 1
    27   14   33 1
    28   15   16 1
    29   15   34 1
    30   15   35 1
    31   16   17 1
    32   16   18 1
    33   18   22 1
    34   18   19 1
    35   19   20 2
    36   19   36 1
    37   20   21 1
    38   20   37 1
    39   21   22 2
    40   21   38 1
    41   23   39 1
    42   23   40 1
##########                 Name:     REAL300011180501
##########          Protonation:                 none
##########               SMILES:   CC1=C(C(=O)[O-])SC2=NC(C)=NC(NC3=CN(C(C)C)N=C3)=C12
##########            Long Name:   NO_LONG_NAME
##########          FlexRecCode: 1
##########               Number:                 7338
##########   Ligand Source File: /mnt/nfs/exa/work/stefan/Anions/MWT-300-400/Each-pattern/BUILD/pattern1/All-chec
##########                 Rank:                    1
##########               Setnum:                   71
##########             Matchnum:                    1
##########                Cloud:                    1
##########        Electrostatic:           -60.969704
##########                 Gist:             0.000000
##########        Van der Waals:           -24.886200
##########  Ligand Polar Desolv:            34.837303
########## Ligand Apolar Desolv:            -6.357551
##########      Internal Energy:             0.000000
##########      Receptor Energy:             0.000000
########## Receptor Desolvation:             0.000000
########## Receptor Hydrophobic:             0.000000
##########         Total Energy:           -57.376152
##########        Ligand Charge:            -1.000000
##########            Arbitrary:    +999.9990
##########        Ligand Energy:             0.000000

@<TRIPOS>MOLECULE
 REAL250003486803      none
   40    42    -1     0     0



@<TRIPOS>ATOM
      1 O1        -44.0194   -45.8348    -2.0233 O.co2      1  LIG1  -0.7000
      2 C1        -43.4109   -45.5944    -0.9945 C.2        1  LIG1   0.5000
      3 O2        -42.2146   -45.8203    -0.9266 O.co2      1  LIG1  -0.7000
      4 C2        -44.1374   -45.0181     0.1935 C.3        1  LIG1  -0.1700
      5 C3        -45.1611   -43.9323    -0.1777 C.3        1  LIG1  -0.1200
      6 C4        -44.6884   -43.1675     1.0699 C.3        1  LIG1   0.1300
      7 N1        -44.5797   -41.7210     0.8653 N.am       1  LIG1  -0.7300
      8 C5        -43.9665   -40.9540     1.7885 C.2        1  LIG1   0.7100
      9 O3        -43.5035   -41.4626     2.7911 O.2        1  LIG1  -0.5900
     10 N2        -43.8665   -39.6233     1.6003 N.am       1  LIG1  -0.7400
     11 C6        -43.1999   -38.7896     2.6037 C.3        1  LIG1   0.1500
     12 H1        -42.8488   -39.4085     3.4294 H          1  LIG1   0.1000
     13 C7        -44.1702   -37.7155     3.1255 C.3        1  LIG1  -0.1400
     14 C8        -43.5404   -36.3493     2.7843 C.3        1  LIG1  -0.1200
     15 C9        -42.5977   -36.6525     1.5932 C.3        1  LIG1  -0.1300
     16 C10       -42.0133   -38.0395     1.9638 C.3        1  LIG1   0.1500
     17 H2        -41.1990   -37.9318     2.6804 H          1  LIG1   0.1200
     18 N3        -41.5518   -38.7399     0.7627 N.pl3      1  LIG1  -0.3600
     19 C11       -40.6063   -39.7019     0.7186 C.2        1  LIG1   0.0400
     20 C12       -40.4726   -40.0900    -0.5707 C.2        1  LIG1  -0.2600
     21 C13       -41.3670   -39.3396    -1.3410 C.2        1  LIG1   0.0400
     22 N4        -42.0183   -38.5340    -0.5420 N.2        1  LIG1  -0.2900
     23 C14       -43.3501   -43.9160     0.9217 C.3        1  LIG1  -0.1200
     24 H3        -44.5354   -45.7845     0.8586 H          1  LIG1   0.0800
     25 H4        -44.9361   -43.4218    -1.1142 H          1  LIG1   0.0800
     26 H5        -46.1961   -44.2691    -0.1174 H          1  LIG1   0.0600
     27 H6        -45.2364   -43.4280     1.9754 H          1  LIG1   0.1100
     28 H7        -44.9492   -41.3151     0.0655 H          1  LIG1   0.3900
     29 H8        -44.2358   -39.2174     0.8003 H          1  LIG1   0.3900
     30 H9        -45.1372   -37.8145     2.6322 H          1  LIG1   0.0800
     31 H10       -44.2902   -37.8132     4.2044 H          1  LIG1   0.0800
     32 H11       -44.3109   -35.6370     2.4891 H          1  LIG1   0.0800
     33 H12       -42.9742   -35.9674     3.6338 H          1  LIG1   0.0700
     34 H13       -43.1590   -36.7063     0.6604 H          1  LIG1   0.0800
     35 H14       -41.8067   -35.9055     1.5268 H          1  LIG1   0.0800
     36 H15       -40.0554   -40.0922     1.5616 H          1  LIG1   0.1700
     37 H16       -39.7950   -40.8456    -0.9398 H          1  LIG1   0.1500
     38 H17       -41.5001   -39.4154    -2.4101 H          1  LIG1   0.1800
     39 H18       -42.9230   -44.2392     1.8711 H          1  LIG1   0.0600
     40 H19       -42.6289   -43.4021     0.2863 H          1  LIG1   0.0800
@<TRIPOS>BOND
     1    1    2 2
     2    2    3 1
     3    2    4 1
     4    4   23 1
     5    4    5 1
     6    4   24 1
     7    5    6 1
     8    5   25 1
     9    5   26 1
    10    6    7 1
    11    6   23 1
    12    6   27 1
    13    7    8 am
    14    7   28 1
    15    8    9 2
    16    8   10 am
    17   10   11 1
    18   10   29 1
    19   11   12 1
    20   11   16 1
    21   11   13 1
    22   13   14 1
    23   13   30 1
    24   13   31 1
    25   14   15 1
    26   14   32 1
    27   14   33 1
    28   15   16 1
    29   15   34 1
    30   15   35 1
    31   16   17 1
    32   16   18 1
    33   18   22 1
    34   18   19 1
    35   19   20 2
    36   19   36 1
    37   20   21 1
    38   20   37 1
    39   21   22 2
    40   21   38 1
    41   23   39 1
    42   23   40 1
##########                 Name:     REAL250002919055
##########          Protonation:                 none
##########               SMILES:   O=C([O-])CC1=CC=CC(NCC2=CC=CC(Cl)=C2)=C1
##########            Long Name:   NO_LONG_NAME
##########          FlexRecCode: 1
##########               Number:                  109
##########   Ligand Source File: /mnt/nfs/exa/work/stefan/Anions/MWT-250-300/Each-pattern/BUILD/pattern1/All-chec
##########                 Rank:                    1
##########               Setnum:                  180
##########             Matchnum:                    1
##########                Cloud:                    1
##########        Electrostatic:           -62.998859
##########                 Gist:             0.000000
##########        Van der Waals:           -20.555471
##########  Ligand Polar Desolv:            32.959969
########## Ligand Apolar Desolv:            -6.804577
##########      Internal Energy:             0.000000
##########      Receptor Energy:             0.000000
########## Receptor Desolvation:             0.000000
########## Receptor Hydrophobic:             0.000000
##########         Total Energy:           -57.398937
##########        Ligand Charge:            -1.000000
##########            Arbitrary:    +999.9990
##########        Ligand Energy:             0.000000

@<TRIPOS>MOLECULE
 REAL300019824738      none
   36    39    -1     0     0



@<TRIPOS>ATOM
      1 C1        -43.6510   -45.5529     2.3132 C.3        1  LIG1   0.1000
      2 N1        -43.5881   -45.1609     0.9030 N.am       1  LIG1  -0.4900
      3 C2        -44.2247   -44.0494     0.4837 C.2        1  LIG1   0.6000
      4 O1        -44.1725   -43.7240    -0.6866 O.2        1  LIG1  -0.4600
      5 C3        -44.9860   -43.2260     1.4463 C.2        1  LIG1   0.1800
      6 N2        -45.1816   -41.9270     1.3686 N.2        1  LIG1  -0.2600
      7 N3        -45.8858   -41.5539     2.3811 N.pl3      1  LIG1  -0.2600
      8 C4        -46.2989   -40.2425     2.6532 C.ar       1  LIG1   0.1300
      9 C5        -47.6515   -39.9430     2.7392 C.ar       1  LIG1  -0.1000
     10 C6        -48.0556   -38.6493     3.0070 C.ar       1  LIG1  -0.1000
     11 C7        -47.1149   -37.6530     3.1896 C.ar       1  LIG1  -0.0900
     12 C8        -45.7661   -37.9470     3.1046 C.ar       1  LIG1  -0.1000
     13 C9        -45.3550   -39.2391     2.8370 C.ar       1  LIG1  -0.0200
     14 Cl1       -43.6621   -39.6080     2.7300 Cl         1  LIG1  -0.0300
     15 C10       -46.1632   -42.6396     3.1318 C.2        1  LIG1   0.2500
     16 C11       -46.9685   -42.6591     4.4055 C.3        1  LIG1  -0.1000
     17 C12       -46.9928   -43.9625     5.2062 C.3        1  LIG1  -0.1400
     18 C13       -48.2339   -43.5187     4.4282 C.3        1  LIG1  -0.1500
     19 N4        -45.6067   -43.6733     2.5534 N.2        1  LIG1  -0.4500
     20 C14       -42.8672   -45.9405    -0.0085 C.2        1  LIG1   0.2800
     21 N5        -42.7284   -45.7127    -1.3066 N.2        1  LIG1  -0.3600
     22 N6        -41.9925   -46.6543    -1.7909 N.2        1  LIG1  -0.1900
     23 N7        -41.6731   -47.4661    -0.8438 N.2        1  LIG1  -0.1800
     24 N8        -42.1963   -47.0516     0.2591 N.2        1  LIG1  -0.4000
     25 H1        -43.0808   -46.4699     2.4612 H          1  LIG1   0.0600
     26 H2        -43.2292   -44.7593     2.9300 H          1  LIG1   0.0800
     27 H3        -44.6897   -45.7211     2.5978 H          1  LIG1   0.0800
     28 H4        -48.3874   -40.7198     2.5925 H          1  LIG1   0.1400
     29 H5        -49.1080   -38.4161     3.0741 H          1  LIG1   0.1400
     30 H6        -47.4339   -36.6426     3.3990 H          1  LIG1   0.1400
     31 H7        -45.0336   -37.1665     3.2480 H          1  LIG1   0.1500
     32 H8        -46.9851   -41.7240     4.9655 H          1  LIG1   0.1300
     33 H9        -46.4262   -44.8061     4.8118 H          1  LIG1   0.1100
     34 H10       -47.0256   -43.8851     6.2930 H          1  LIG1   0.1100
     35 H11       -49.0829   -43.1494     5.0034 H          1  LIG1   0.1100
     36 H12       -48.4842   -44.0700     3.5217 H          1  LIG1   0.1000
@<TRIPOS>BOND
     1    1    2 1
     2    1   25 1
     3    1   26 1
     4    1   27 1
     5    2    3 am
     6    2   20 1
     7    3    4 2
     8    3    5 1
     9    5   19 1
    10    5    6 2
    11    6    7 1
    12    7    8 1
    13    7   15 1
    14    8   13 ar
    15    8    9 ar
    16    9   10 ar
    17    9   28 1
    18   10   11 ar
    19   10   29 1
    20   11   12 ar
    21   11   30 1
    22   12   13 ar
    23   12   31 1
    24   13   14 1
    25   15   16 1
    26   15   19 2
    27   16   18 1
    28   16   17 1
    29   16   32 1
    30   17   18 1
    31   17   33 1
    32   17   34 1
    33   18   35 1
    34   18   36 1
    35   20   24 1
    36   20   21 2
    37   21   22 1
    38   22   23 1
    39   23   24 2
##########                 Name:     REAL300019645868
##########          Protonation:                 none
##########               SMILES:   NC1=C(F)C=C(Cl)C=C1C(=O)NC1=CC=CC(C2=NN=N[N-]2)=C1
##########            Long Name:   NO_LONG_NAME
##########          FlexRecCode: 1
##########               Number:                 8503
##########   Ligand Source File: /mnt/nfs/exa/work/stefan/Anions/MWT-300-400/Each-pattern/BUILD/pattern2/All-chec
##########                 Rank:                    1
##########               Setnum:                   15
##########             Matchnum:                    1
##########                Cloud:                    1
##########        Electrostatic:           -61.946796
##########                 Gist:             0.000000
##########        Van der Waals:           -27.727045
##########  Ligand Polar Desolv:            35.084282
########## Ligand Apolar Desolv:            -2.789658
##########      Internal Energy:             0.000000
##########      Receptor Energy:             0.000000
########## Receptor Desolvation:             0.000000
########## Receptor Hydrophobic:             0.000000
##########         Total Energy:           -57.379219
##########        Ligand Charge:            -1.000000
##########            Arbitrary:    +999.9990
##########        Ligand Energy:             0.000000

@<TRIPOS>MOLECULE
 REAL300019644038      none
   45    48    -1     0     0



@<TRIPOS>ATOM
      1 N1        -51.0914   -31.6028     4.9063 N.1        1  LIG1  -0.4200
      2 C1        -50.2496   -32.2946     4.5850 C.1        1  LIG1   0.2600
      3 C2        -49.1885   -33.1668     4.1799 C.ar       1  LIG1  -0.0800
      4 C3        -48.5055   -33.9285     5.1320 C.ar       1  LIG1  -0.0300
      5 C4        -47.4852   -34.7658     4.7381 C.ar       1  LIG1  -0.1500
      6 C5        -47.1348   -34.8538     3.3963 C.ar       1  LIG1   0.1700
      7 O1        -46.1286   -35.6803     3.0124 O.3        1  LIG1  -0.3000
      8 C6        -45.4754   -36.4281     4.0402 C.3        1  LIG1   0.1000
      9 C7        -44.3948   -37.2830     3.4299 C.ar       1  LIG1  -0.1100
     10 C8        -43.1111   -36.7833     3.2972 C.ar       1  LIG1  -0.0700
     11 C9        -42.1134   -37.5619     2.7387 C.ar       1  LIG1  -0.1300
     12 C10       -42.3913   -38.8445     2.3139 C.ar       1  LIG1  -0.0700
     13 C11       -43.6855   -39.3528     2.4390 C.ar       1  LIG1  -0.1300
     14 C12       -43.9919   -40.7243     1.9809 C.2        1  LIG1   0.5500
     15 O2        -43.1145   -41.5653     1.9507 O.2        1  LIG1  -0.5000
     16 N2        -45.2427   -41.0410     1.5915 N.am       1  LIG1  -0.6700
     17 C13       -45.5314   -42.3374     1.1526 C.ar       1  LIG1   0.1300
     18 C14       -46.8005   -42.8695     1.3448 C.ar       1  LIG1  -0.1600
     19 C15       -47.0918   -44.1481     0.9075 C.ar       1  LIG1  -0.1000
     20 C16       -46.1208   -44.9082     0.2878 C.ar       1  LIG1  -0.1200
     21 C17       -44.8419   -44.3847     0.0955 C.ar       1  LIG1   0.0600
     22 C18       -43.7986   -45.1984    -0.5688 C.2        1  LIG1   0.0700
     23 N3        -43.7840   -46.5259    -0.6984 N.2        1  LIG1  -0.3600
     24 N4        -42.7098   -46.8409    -1.3377 N.2        1  LIG1  -0.1900
     25 N5        -42.0468   -45.7711    -1.6070 N.2        1  LIG1  -0.1900
     26 N6        -42.6856   -44.7487    -1.1502 N.2        1  LIG1  -0.3700
     27 C19       -44.5494   -43.0938     0.5309 C.ar       1  LIG1  -0.1000
     28 C20       -44.6875   -38.5623     3.0041 C.ar       1  LIG1  -0.0300
     29 C21       -47.8076   -34.0940     2.4470 C.ar       1  LIG1  -0.2100
     30 C22       -48.8328   -33.2584     2.8315 C.ar       1  LIG1  -0.0300
     31 H1        -48.7770   -33.8604     6.1751 H          1  LIG1   0.1400
     32 H2        -46.9566   -35.3544     5.4733 H          1  LIG1   0.1400
     33 H3        -46.2024   -37.0657     4.5435 H          1  LIG1   0.0800
     34 H4        -45.0320   -35.7426     4.7624 H          1  LIG1   0.0800
     35 H5        -42.8871   -35.7812     3.6321 H          1  LIG1   0.1300
     36 H6        -41.1136   -37.1661     2.6390 H          1  LIG1   0.1300
     37 H7        -41.6104   -39.4525     1.8817 H          1  LIG1   0.1300
     38 H8        -45.9428   -40.3699     1.6155 H          1  LIG1   0.4100
     39 H9        -47.5628   -42.2809     1.8335 H          1  LIG1   0.1200
     40 H10       -48.0812   -44.5552     1.0554 H          1  LIG1   0.1200
     41 H11       -46.3511   -45.9082    -0.0489 H          1  LIG1   0.1300
     42 H12       -43.5610   -42.6838     0.3848 H          1  LIG1   0.1500
     43 H13       -45.6897   -38.9512     3.1076 H          1  LIG1   0.1400
     44 H14       -47.5289   -34.1619     1.4058 H          1  LIG1   0.1400
     45 H15       -49.3579   -32.6713     2.0926 H          1  LIG1   0.1400
@<TRIPOS>BOND
     1    1    2 3
     2    2    3 1
     3    3   30 ar
     4    3    4 ar
     5    4    5 ar
     6    4   31 1
     7    5    6 ar
     8    5   32 1
     9    6    7 1
    10    6   29 ar
    11    7    8 1
    12    8    9 1
    13    8   33 1
    14    8   34 1
    15    9   28 ar
    16    9   10 ar
    17   10   11 ar
    18   10   35 1
    19   11   12 ar
    20   11   36 1
    21   12   13 ar
    22   12   37 1
    23   13   14 1
    24   13   28 ar
    25   14   15 2
    26   14   16 am
    27   16   17 1
    28   16   38 1
    29   17   27 ar
    30   17   18 ar
    31   18   19 ar
    32   18   39 1
    33   19   20 ar
    34   19   40 1
    35   20   21 ar
    36   20   41 1
    37   21   22 1
    38   21   27 ar
    39   22   26 1
    40   22   23 2
    41   23   24 1
    42   24   25 2
    43   25   26 1
    44   27   42 1
    45   28   43 1
    46   29   30 ar
    47   29   44 1
    48   30   45 1
##########                 Name:     REAL250000132303
##########          Protonation:                 none
##########               SMILES:   CC(C)OC1(CNC(=O)C2CC=CCC2C(=O)[O-])CCC1
##########            Long Name:   NO_LONG_NAME
##########          FlexRecCode: 1
##########               Number:                 5580
##########   Ligand Source File: /mnt/nfs/exa/work/stefan/Anions/MWT-250-300/Each-pattern/BUILD/pattern1/All-chec
##########                 Rank:                    1
##########               Setnum:                    6
##########             Matchnum:                    1
##########                Cloud:                    1
##########        Electrostatic:           -60.250839
##########                 Gist:             0.000000
##########        Van der Waals:           -23.084976
##########  Ligand Polar Desolv:            31.816418
########## Ligand Apolar Desolv:            -5.818082
##########      Internal Energy:             0.000000
##########      Receptor Energy:             0.000000
########## Receptor Desolvation:             0.000000
########## Receptor Hydrophobic:             0.000000
##########         Total Energy:           -57.337479
##########        Ligand Charge:            -1.000000
##########            Arbitrary:    +999.9990
##########        Ligand Energy:             0.000000

